
     RDKit          3D

 54 57  0  0  0  0  0  0  0  0999 V2000
    8.5950   42.1380   12.4650 C   0  0  0  0  0  0  0  0  0  0  0  0
   10.0190   42.6990   12.5060 C   0  0  0  0  0  0  0  0  0  0  0  0
   10.7370   42.0750   13.5580 O   0  0  0  0  0  0  0  0  0  0  0  0
   12.0430   41.7720   13.3990 C   0  0  0  0  0  0  0  0  0  0  0  0
   12.7090   42.1340   12.4290 O   0  0  0  0  0  0  0  0  0  0  0  0
   12.5050   41.0100   14.4800 N   0  0  0  0  0  0  0  0  0  0  0  0
   13.2830   41.6010   15.5750 C   0  0  0  0  0  0  0  0  0  0  0  0
   12.2550   39.5650   14.5560 C   0  0  0  0  0  0  0  0  0  0  0  0
   12.4770   38.8750   13.2300 C   0  0  0  0  0  0  0  0  0  0  0  0
   11.6630   37.9650   12.5800 C   0  0  0  0  0  0  0  0  0  0  0  0
   10.3240   37.4300   12.9770 C   0  0  0  0  0  0  0  0  0  0  0  0
   10.2300   36.2270   13.3030 O   0  0  0  0  0  0  0  0  0  0  0  0
    9.3140   38.1670   12.9630 O   0  0  0  0  0  1  0  0  0  0  0  0
   12.3090   37.5410   11.3990 N   0  0  0  0  0  0  0  0  0  0  0  0
   11.8280   36.5950   10.3880 C   0  0  0  0  0  0  0  0  0  0  0  0
   10.3350   36.7100   10.0550 C   0  0  0  0  0  0  0  0  0  0  0  0
    9.5290   35.5510    9.9220 C   0  0  0  0  0  0  0  0  0  0  0  0
    8.1610   35.6520    9.6170 C   0  0  0  0  0  0  0  0  0  0  0  0
    7.5730   36.9140    9.4370 C   0  0  0  0  0  0  0  0  0  0  0  0
    8.3520   38.0790    9.5620 C   0  0  0  0  0  0  0  0  0  0  0  0
    7.7440   39.3390    9.3770 C   0  0  0  0  0  0  0  0  0  0  0  0
    8.5040   40.5160    9.4970 C   0  0  0  0  0  0  0  0  0  0  0  0
    9.8740   40.4370    9.8020 C   0  0  0  0  0  0  0  0  0  0  0  0
   10.4870   39.1830    9.9870 C   0  0  0  0  0  0  0  0  0  0  0  0
    9.7370   37.9860    9.8710 C   0  0  0  0  0  0  0  0  0  0  0  0
   13.5370   38.1800   11.2940 C   0  0  0  0  0  0  0  0  0  0  0  0
   14.5600   38.0980   10.3260 C   0  0  0  0  0  0  0  0  0  0  0  0
   15.7200   38.8790   10.4640 C   0  0  0  0  0  0  0  0  0  0  0  0
   15.8530   39.7390   11.5680 C   0  0  0  0  0  0  0  0  0  0  0  0
   16.9670   40.4970   11.7050 F   0  0  0  0  0  0  0  0  0  0  0  0
   14.8290   39.8120   12.5330 C   0  0  0  0  0  0  0  0  0  0  0  0
   13.6520   39.0330   12.4240 C   0  0  0  0  0  0  0  0  0  0  0  0
    8.2281   41.9935   13.4919 H   0  0  0  0  0  0  0  0  0  0  0  0
    7.9377   42.8444   11.9368 H   0  0  0  0  0  0  0  0  0  0  0  0
    8.5961   41.1731   11.9368 H   0  0  0  0  0  0  0  0  0  0  0  0
   10.5212   42.4979   11.5482 H   0  0  0  0  0  0  0  0  0  0  0  0
    9.9831   43.7850   12.6770 H   0  0  0  0  0  0  0  0  0  0  0  0
   12.8612   41.2806   16.5390 H   0  0  0  0  0  0  0  0  0  0  0  0
   14.3288   41.2675   15.5034 H   0  0  0  0  0  0  0  0  0  0  0  0
   13.2422   42.6979   15.5034 H   0  0  0  0  0  0  0  0  0  0  0  0
   12.9352   39.1269   15.3012 H   0  0  0  0  0  0  0  0  0  0  0  0
   11.2021   39.4197   14.8393 H   0  0  0  0  0  0  0  0  0  0  0  0
   12.3985   36.7641    9.4628 H   0  0  0  0  0  0  0  0  0  0  0  0
   11.9733   35.5902   10.8115 H   0  0  0  0  0  0  0  0  0  0  0  0
    9.9814   34.5578   10.0597 H   0  0  0  0  0  0  0  0  0  0  0  0
    7.5508   34.7420    9.5193 H   0  0  0  0  0  0  0  0  0  0  0  0
    6.5021   36.9921    9.1980 H   0  0  0  0  0  0  0  0  0  0  0  0
    6.6720   39.4006    9.1381 H   0  0  0  0  0  0  0  0  0  0  0  0
    8.0274   41.4968    9.3525 H   0  0  0  0  0  0  0  0  0  0  0  0
   10.4688   41.3575    9.8964 H   0  0  0  0  0  0  0  0  0  0  0  0
   11.5599   39.1318   10.2242 H   0  0  0  0  0  0  0  0  0  0  0  0
   14.4497   37.4234    9.4641 H   0  0  0  0  0  0  0  0  0  0  0  0
   16.5202   38.8177    9.7117 H   0  0  0  0  0  0  0  0  0  0  0  0
   14.9468   40.4901   13.3911 H   0  0  0  0  0  0  0  0  0  0  0  0
  1  2  1  0
  2  3  1  0
  3  4  1  0
  4  5  2  0
  4  6  1  0
  6  7  1  0
  6  8  1  0
  8  9  1  0
  9 10  2  0
 10 11  1  0
 11 12  2  0
 11 13  1  0
 10 14  1  0
 14 15  1  0
 15 16  1  0
 16 17  2  0
 17 18  1  0
 18 19  2  0
 19 20  1  0
 20 21  2  0
 21 22  1  0
 22 23  2  0
 23 24  1  0
 24 25  2  0
 14 26  1  0
 26 27  2  0
 27 28  1  0
 28 29  2  0
 29 30  1  0
 29 31  1  0
 31 32  2  0
 32  9  1  0
 25 16  1  0
 32 26  1  0
 25 20  1  0
  1 33  1  0
  1 34  1  0
  1 35  1  0
  2 36  1  0
  2 37  1  0
  7 38  1  0
  7 39  1  0
  7 40  1  0
  8 41  1  0
  8 42  1  0
 15 43  1  0
 15 44  1  0
 17 45  1  0
 18 46  1  0
 19 47  1  0
 21 48  1  0
 22 49  1  0
 23 50  1  0
 24 51  1  0
 27 52  1  0
 28 53  1  0
 31 54  1  0
M  CHG  1  13  -1
M  END
>  <meeko>  (1) 
{"free_energy": -4.51, "intermolecular_energy": -6.9, "internal_energy": -2.51, "cluster_size": 50, "cluster_id": 39, "rank_in_cluster": 47}

$$$$

     RDKit          3D

 54 57  0  0  0  0  0  0  0  0999 V2000
    6.8260   36.6980   17.0030 C   0  0  0  0  0  0  0  0  0  0  0  0
    7.6010   37.0270   18.2810 C   0  0  0  0  0  0  0  0  0  0  0  0
    8.0530   38.3700   18.2200 O   0  0  0  0  0  0  0  0  0  0  0  0
    9.1260   38.6890   17.4650 C   0  0  0  0  0  0  0  0  0  0  0  0
    9.2490   39.7690   16.8840 O   0  0  0  0  0  0  0  0  0  0  0  0
   10.0500   37.6360   17.4540 N   0  0  0  0  0  0  0  0  0  0  0  0
   11.0100   37.4280   18.5440 C   0  0  0  0  0  0  0  0  0  0  0  0
   10.1220   36.6980   16.3260 C   0  0  0  0  0  0  0  0  0  0  0  0
   10.8000   37.3040   15.1200 C   0  0  0  0  0  0  0  0  0  0  0  0
   10.5270   37.1010   13.7780 C   0  0  0  0  0  0  0  0  0  0  0  0
    9.4700   36.2580   13.1370 C   0  0  0  0  0  0  0  0  0  0  0  0
    9.6430   35.8700   11.9620 O   0  0  0  0  0  0  0  0  0  0  0  0
    8.4260   35.9640   13.7590 O   0  0  0  0  0  1  0  0  0  0  0  0
   11.4600   37.8280   13.0090 N   0  0  0  0  0  0  0  0  0  0  0  0
   11.5590   37.9260   11.5500 C   0  0  0  0  0  0  0  0  0  0  0  0
   10.3190   38.5080   10.8580 C   0  0  0  0  0  0  0  0  0  0  0  0
    9.6830   37.8100    9.8010 C   0  0  0  0  0  0  0  0  0  0  0  0
    8.5470   38.3390    9.1640 C   0  0  0  0  0  0  0  0  0  0  0  0
    8.0270   39.5780    9.5710 C   0  0  0  0  0  0  0  0  0  0  0  0
    8.6420   40.2920   10.6170 C   0  0  0  0  0  0  0  0  0  0  0  0
    8.1070   41.5350   11.0120 C   0  0  0  0  0  0  0  0  0  0  0  0
    8.7050   42.2660   12.0550 C   0  0  0  0  0  0  0  0  0  0  0  0
    9.8410   41.7530   12.7050 C   0  0  0  0  0  0  0  0  0  0  0  0
   10.3810   40.5120   12.3150 C   0  0  0  0  0  0  0  0  0  0  0  0
    9.7910   39.7630   11.2670 C   0  0  0  0  0  0  0  0  0  0  0  0
   12.3310   38.4980   13.8600 C   0  0  0  0  0  0  0  0  0  0  0  0
   13.4350   39.3370   13.6030 C   0  0  0  0  0  0  0  0  0  0  0  0
   14.1500   39.9000   14.6730 C   0  0  0  0  0  0  0  0  0  0  0  0
   13.7590   39.6240   15.9950 C   0  0  0  0  0  0  0  0  0  0  0  0
   14.4420   40.1670   17.0310 F   0  0  0  0  0  0  0  0  0  0  0  0
   12.6570   38.7820   16.2430 C   0  0  0  0  0  0  0  0  0  0  0  0
   11.9210   38.1950   15.1850 C   0  0  0  0  0  0  0  0  0  0  0  0
    5.8431   36.2808   17.2674 H   0  0  0  0  0  0  0  0  0  0  0  0
    6.6880   37.6151   16.4115 H   0  0  0  0  0  0  0  0  0  0  0  0
    7.3899   35.9617   16.4115 H   0  0  0  0  0  0  0  0  0  0  0  0
    6.9431   36.8996   19.1533 H   0  0  0  0  0  0  0  0  0  0  0  0
    8.4636   36.3508   18.3744 H   0  0  0  0  0  0  0  0  0  0  0  0
   10.4969   37.5392   19.5107 H   0  0  0  0  0  0  0  0  0  0  0  0
   11.4362   36.4167   18.4692 H   0  0  0  0  0  0  0  0  0  0  0  0
   11.8166   38.1722   18.4692 H   0  0  0  0  0  0  0  0  0  0  0  0
   10.6881   35.8089   16.6407 H   0  0  0  0  0  0  0  0  0  0  0  0
    9.0928   36.4374   16.0383 H   0  0  0  0  0  0  0  0  0  0  0  0
   12.4188   38.5679   11.3078 H   0  0  0  0  0  0  0  0  0  0  0  0
   11.6668   36.8967   11.1773 H   0  0  0  0  0  0  0  0  0  0  0  0
   10.0845   36.8395    9.4741 H   0  0  0  0  0  0  0  0  0  0  0  0
    8.0655   37.7822    8.3466 H   0  0  0  0  0  0  0  0  0  0  0  0
    7.1381   39.9913    9.0721 H   0  0  0  0  0  0  0  0  0  0  0  0
    7.2180   41.9352   10.5025 H   0  0  0  0  0  0  0  0  0  0  0  0
    8.2850   43.2356   12.3607 H   0  0  0  0  0  0  0  0  0  0  0  0
   10.3097   42.3227   13.5209 H   0  0  0  0  0  0  0  0  0  0  0  0
   11.2706   40.1200   12.8297 H   0  0  0  0  0  0  0  0  0  0  0  0
   13.7356   39.5501   12.5666 H   0  0  0  0  0  0  0  0  0  0  0  0
   15.0124   40.5542   14.4774 H   0  0  0  0  0  0  0  0  0  0  0  0
   12.3615   38.5758   17.2823 H   0  0  0  0  0  0  0  0  0  0  0  0
  1  2  1  0
  2  3  1  0
  3  4  1  0
  4  5  2  0
  4  6  1  0
  6  7  1  0
  6  8  1  0
  8  9  1  0
  9 10  2  0
 10 11  1  0
 11 12  2  0
 11 13  1  0
 10 14  1  0
 14 15  1  0
 15 16  1  0
 16 17  2  0
 17 18  1  0
 18 19  2  0
 19 20  1  0
 20 21  2  0
 21 22  1  0
 22 23  2  0
 23 24  1  0
 24 25  2  0
 14 26  1  0
 26 27  2  0
 27 28  1  0
 28 29  2  0
 29 30  1  0
 29 31  1  0
 31 32  2  0
 32  9  1  0
 25 16  1  0
 32 26  1  0
 25 20  1  0
  1 33  1  0
  1 34  1  0
  1 35  1  0
  2 36  1  0
  2 37  1  0
  7 38  1  0
  7 39  1  0
  7 40  1  0
  8 41  1  0
  8 42  1  0
 15 43  1  0
 15 44  1  0
 17 45  1  0
 18 46  1  0
 19 47  1  0
 21 48  1  0
 22 49  1  0
 23 50  1  0
 24 51  1  0
 27 52  1  0
 28 53  1  0
 31 54  1  0
M  CHG  1  13  -1
M  END
>  <meeko>  (2) 
{"free_energy": -4.62, "intermolecular_energy": -7.0, "internal_energy": -2.07, "cluster_size": 31, "cluster_id": 41, "rank_in_cluster": 29}

$$$$

     RDKit          3D

 54 57  0  0  0  0  0  0  0  0999 V2000
    6.5980   35.5020   18.8800 C   0  0  0  0  0  0  0  0  0  0  0  0
    6.3490   35.1180   17.4200 C   0  0  0  0  0  0  0  0  0  0  0  0
    7.1170   35.9610   16.5770 O   0  0  0  0  0  0  0  0  0  0  0  0
    8.4650   35.8990   16.6050 C   0  0  0  0  0  0  0  0  0  0  0  0
    9.1580   36.5560   17.3840 O   0  0  0  0  0  0  0  0  0  0  0  0
    8.9360   34.9940   15.6450 N   0  0  0  0  0  0  0  0  0  0  0  0
    9.0250   33.5530   15.9080 C   0  0  0  0  0  0  0  0  0  0  0  0
    9.3940   35.4520   14.3260 C   0  0  0  0  0  0  0  0  0  0  0  0
   10.4140   36.5610   14.4280 C   0  0  0  0  0  0  0  0  0  0  0  0
   10.5270   37.7070   13.6620 C   0  0  0  0  0  0  0  0  0  0  0  0
    9.6620   38.1960   12.5430 C   0  0  0  0  0  0  0  0  0  0  0  0
    9.5160   39.4280   12.3910 O   0  0  0  0  0  0  0  0  0  0  0  0
    9.0810   37.3870   11.7870 O   0  0  0  0  0  1  0  0  0  0  0  0
   11.6720   38.4210   14.0770 N   0  0  0  0  0  0  0  0  0  0  0  0
   12.1870   39.6940   13.5650 C   0  0  0  0  0  0  0  0  0  0  0  0
   13.4590   39.5790   12.7150 C   0  0  0  0  0  0  0  0  0  0  0  0
   14.7360   39.4970   13.3260 C   0  0  0  0  0  0  0  0  0  0  0  0
   15.9040   39.3910   12.5510 C   0  0  0  0  0  0  0  0  0  0  0  0
   15.8170   39.3690   11.1500 C   0  0  0  0  0  0  0  0  0  0  0  0
   14.5610   39.4520   10.5190 C   0  0  0  0  0  0  0  0  0  0  0  0
   14.4930   39.4280    9.1110 C   0  0  0  0  0  0  0  0  0  0  0  0
   13.2500   39.5100    8.4600 C   0  0  0  0  0  0  0  0  0  0  0  0
   12.0700   39.6140    9.2170 C   0  0  0  0  0  0  0  0  0  0  0  0
   12.1300   39.6390   10.6240 C   0  0  0  0  0  0  0  0  0  0  0  0
   13.3750   39.5570   11.2960 C   0  0  0  0  0  0  0  0  0  0  0  0
   12.2920   37.7300   15.1110 C   0  0  0  0  0  0  0  0  0  0  0  0
   13.4580   38.0010   15.8550 C   0  0  0  0  0  0  0  0  0  0  0  0
   13.8610   37.1190   16.8720 C   0  0  0  0  0  0  0  0  0  0  0  0
   13.0970   35.9700   17.1410 C   0  0  0  0  0  0  0  0  0  0  0  0
   13.4780   35.1180   18.1220 F   0  0  0  0  0  0  0  0  0  0  0  0
   11.9350   35.7050   16.3900 C   0  0  0  0  0  0  0  0  0  0  0  0
   11.5070   36.5710   15.3560 C   0  0  0  0  0  0  0  0  0  0  0  0
    6.1193   34.7637   19.5401 H   0  0  0  0  0  0  0  0  0  0  0  0
    7.6805   35.5205   19.0748 H   0  0  0  0  0  0  0  0  0  0  0  0
    6.1733   36.4978   19.0748 H   0  0  0  0  0  0  0  0  0  0  0  0
    6.6442   34.0705   17.2599 H   0  0  0  0  0  0  0  0  0  0  0  0
    5.2809   35.2353   17.1847 H   0  0  0  0  0  0  0  0  0  0  0  0
    9.0358   33.3785   16.9940 H   0  0  0  0  0  0  0  0  0  0  0  0
    8.1565   33.0448   15.4636 H   0  0  0  0  0  0  0  0  0  0  0  0
    9.9494   33.1556   15.4636 H   0  0  0  0  0  0  0  0  0  0  0  0
    9.8469   34.6024   13.7939 H   0  0  0  0  0  0  0  0  0  0  0  0
    8.5213   35.8455   13.7842 H   0  0  0  0  0  0  0  0  0  0  0  0
   11.4032   40.1563   12.9470 H   0  0  0  0  0  0  0  0  0  0  0  0
   12.4568   40.2952   14.4458 H   0  0  0  0  0  0  0  0  0  0  0  0
   14.8138   39.5166   14.4231 H   0  0  0  0  0  0  0  0  0  0  0  0
   16.8860   39.3253   13.0422 H   0  0  0  0  0  0  0  0  0  0  0  0
   16.7315   39.2868   10.5442 H   0  0  0  0  0  0  0  0  0  0  0  0
   15.4166   39.3448    8.5194 H   0  0  0  0  0  0  0  0  0  0  0  0
   13.2007   39.4928    7.3612 H   0  0  0  0  0  0  0  0  0  0  0  0
   11.0964   39.6761    8.7087 H   0  0  0  0  0  0  0  0  0  0  0  0
   11.2011   39.7230   11.2071 H   0  0  0  0  0  0  0  0  0  0  0  0
   14.0517   38.9017   15.6398 H   0  0  0  0  0  0  0  0  0  0  0  0
   14.7703   37.3267   17.4551 H   0  0  0  0  0  0  0  0  0  0  0  0
   11.3461   34.8030   16.6128 H   0  0  0  0  0  0  0  0  0  0  0  0
  1  2  1  0
  2  3  1  0
  3  4  1  0
  4  5  2  0
  4  6  1  0
  6  7  1  0
  6  8  1  0
  8  9  1  0
  9 10  2  0
 10 11  1  0
 11 12  2  0
 11 13  1  0
 10 14  1  0
 14 15  1  0
 15 16  1  0
 16 17  2  0
 17 18  1  0
 18 19  2  0
 19 20  1  0
 20 21  2  0
 21 22  1  0
 22 23  2  0
 23 24  1  0
 24 25  2  0
 14 26  1  0
 26 27  2  0
 27 28  1  0
 28 29  2  0
 29 30  1  0
 29 31  1  0
 31 32  2  0
 32  9  1  0
 25 16  1  0
 32 26  1  0
 25 20  1  0
  1 33  1  0
  1 34  1  0
  1 35  1  0
  2 36  1  0
  2 37  1  0
  7 38  1  0
  7 39  1  0
  7 40  1  0
  8 41  1  0
  8 42  1  0
 15 43  1  0
 15 44  1  0
 17 45  1  0
 18 46  1  0
 19 47  1  0
 21 48  1  0
 22 49  1  0
 23 50  1  0
 24 51  1  0
 27 52  1  0
 28 53  1  0
 31 54  1  0
M  CHG  1  13  -1
M  END
>  <meeko>  (3) 
{"free_energy": -4.29, "intermolecular_energy": -6.68, "internal_energy": -1.91, "cluster_size": 52, "cluster_id": 33, "rank_in_cluster": 49}

$$$$

     RDKit          3D

 54 57  0  0  0  0  0  0  0  0999 V2000
    7.3640   37.8550    8.1670 C   0  0  0  0  0  0  0  0  0  0  0  0
    8.4290   37.3690    9.1520 C   0  0  0  0  0  0  0  0  0  0  0  0
    7.8190   37.0960   10.4030 O   0  0  0  0  0  0  0  0  0  0  0  0
    8.3980   36.2320   11.2640 C   0  0  0  0  0  0  0  0  0  0  0  0
    7.7800   35.3390   11.8460 O   0  0  0  0  0  0  0  0  0  0  0  0
    9.7680   36.4990   11.3810 N   0  0  0  0  0  0  0  0  0  0  0  0
   10.7900   35.5080   11.0250 C   0  0  0  0  0  0  0  0  0  0  0  0
   10.2520   37.7860   11.8990 C   0  0  0  0  0  0  0  0  0  0  0  0
   10.1060   37.8910   13.3980 C   0  0  0  0  0  0  0  0  0  0  0  0
    9.8340   36.8910   14.3150 C   0  0  0  0  0  0  0  0  0  0  0  0
    9.6420   35.4230   14.0960 C   0  0  0  0  0  0  0  0  0  0  0  0
    8.4920   34.9450   14.2090 O   0  0  0  0  0  0  0  0  0  0  0  0
   10.6150   34.6870   13.8260 O   0  0  0  0  0  1  0  0  0  0  0  0
    9.7250   37.4680   15.5980 N   0  0  0  0  0  0  0  0  0  0  0  0
    9.4570   36.8020   16.8760 C   0  0  0  0  0  0  0  0  0  0  0  0
    7.9740   36.7230   17.2630 C   0  0  0  0  0  0  0  0  0  0  0  0
    6.9740   36.5470   16.2740 C   0  0  0  0  0  0  0  0  0  0  0  0
    5.6150   36.4740   16.6240 C   0  0  0  0  0  0  0  0  0  0  0  0
    5.2300   36.5770   17.9710 C   0  0  0  0  0  0  0  0  0  0  0  0
    6.2040   36.7540   18.9710 C   0  0  0  0  0  0  0  0  0  0  0  0
    5.7990   36.8560   20.3180 C   0  0  0  0  0  0  0  0  0  0  0  0
    6.7550   37.0340   21.3340 C   0  0  0  0  0  0  0  0  0  0  0  0
    8.1200   37.1080   21.0050 C   0  0  0  0  0  0  0  0  0  0  0  0
    8.5310   37.0070   19.6620 C   0  0  0  0  0  0  0  0  0  0  0  0
    7.5810   36.8280   18.6260 C   0  0  0  0  0  0  0  0  0  0  0  0
    9.9270   38.8380   15.5030 C   0  0  0  0  0  0  0  0  0  0  0  0
    9.9110   39.8610   16.4740 C   0  0  0  0  0  0  0  0  0  0  0  0
   10.1630   41.1900   16.0960 C   0  0  0  0  0  0  0  0  0  0  0  0
   10.4300   41.4930   14.7490 C   0  0  0  0  0  0  0  0  0  0  0  0
   10.6770   42.7720   14.3790 F   0  0  0  0  0  0  0  0  0  0  0  0
   10.4410   40.4670   13.7850 C   0  0  0  0  0  0  0  0  0  0  0  0
   10.1850   39.1190   14.1340 C   0  0  0  0  0  0  0  0  0  0  0  0
    6.5013   38.2487    8.7245 H   0  0  0  0  0  0  0  0  0  0  0  0
    7.7853   38.6500    7.5342 H   0  0  0  0  0  0  0  0  0  0  0  0
    7.0396   37.0158    7.5342 H   0  0  0  0  0  0  0  0  0  0  0  0
    8.8980   36.4528    8.7639 H   0  0  0  0  0  0  0  0  0  0  0  0
    9.1974   38.1460    9.2778 H   0  0  0  0  0  0  0  0  0  0  0  0
   11.2260   35.0852   11.9422 H   0  0  0  0  0  0  0  0  0  0  0  0
   10.3298   34.7032   10.4330 H   0  0  0  0  0  0  0  0  0  0  0  0
   11.5803   35.9927   10.4330 H   0  0  0  0  0  0  0  0  0  0  0  0
   11.3151   37.8950   11.6385 H   0  0  0  0  0  0  0  0  0  0  0  0
    9.6438   38.5821   11.4448 H   0  0  0  0  0  0  0  0  0  0  0  0
    9.8500   35.7763   16.8162 H   0  0  0  0  0  0  0  0  0  0  0  0
    9.9468   37.4105   17.6505 H   0  0  0  0  0  0  0  0  0  0  0  0
    7.2661   36.4663   15.2166 H   0  0  0  0  0  0  0  0  0  0  0  0
    4.8526   36.3362   15.8431 H   0  0  0  0  0  0  0  0  0  0  0  0
    4.1661   36.5192   18.2443 H   0  0  0  0  0  0  0  0  0  0  0  0
    4.7311   36.7961   20.5750 H   0  0  0  0  0  0  0  0  0  0  0  0
    6.4356   37.1151   22.3835 H   0  0  0  0  0  0  0  0  0  0  0  0
    8.8689   37.2452   21.7989 H   0  0  0  0  0  0  0  0  0  0  0  0
    9.6011   37.0677   19.4144 H   0  0  0  0  0  0  0  0  0  0  0  0
    9.7014   39.6182   17.5262 H   0  0  0  0  0  0  0  0  0  0  0  0
   10.1516   41.9905   16.8504 H   0  0  0  0  0  0  0  0  0  0  0  0
   10.6536   40.7187   12.7355 H   0  0  0  0  0  0  0  0  0  0  0  0
  1  2  1  0
  2  3  1  0
  3  4  1  0
  4  5  2  0
  4  6  1  0
  6  7  1  0
  6  8  1  0
  8  9  1  0
  9 10  2  0
 10 11  1  0
 11 12  2  0
 11 13  1  0
 10 14  1  0
 14 15  1  0
 15 16  1  0
 16 17  2  0
 17 18  1  0
 18 19  2  0
 19 20  1  0
 20 21  2  0
 21 22  1  0
 22 23  2  0
 23 24  1  0
 24 25  2  0
 14 26  1  0
 26 27  2  0
 27 28  1  0
 28 29  2  0
 29 30  1  0
 29 31  1  0
 31 32  2  0
 32  9  1  0
 25 16  1  0
 32 26  1  0
 25 20  1  0
  1 33  1  0
  1 34  1  0
  1 35  1  0
  2 36  1  0
  2 37  1  0
  7 38  1  0
  7 39  1  0
  7 40  1  0
  8 41  1  0
  8 42  1  0
 15 43  1  0
 15 44  1  0
 17 45  1  0
 18 46  1  0
 19 47  1  0
 21 48  1  0
 22 49  1  0
 23 50  1  0
 24 51  1  0
 27 52  1  0
 28 53  1  0
 31 54  1  0
M  CHG  1  13  -1
M  END
>  <meeko>  (4) 
{"free_energy": -5.68, "intermolecular_energy": -8.07, "internal_energy": -1.44, "cluster_size": 136, "cluster_id": 23, "rank_in_cluster": 72}

$$$$

     RDKit          3D

 54 57  0  0  0  0  0  0  0  0999 V2000
   10.8060   40.8260   19.1050 C   0  0  0  0  0  0  0  0  0  0  0  0
   11.4960   39.9330   18.0710 C   0  0  0  0  0  0  0  0  0  0  0  0
   11.4990   40.5900   16.8140 O   0  0  0  0  0  0  0  0  0  0  0  0
   10.3730   40.6350   16.0710 C   0  0  0  0  0  0  0  0  0  0  0  0
    9.2700   40.9360   16.5300 O   0  0  0  0  0  0  0  0  0  0  0  0
   10.6500   40.3040   14.7380 N   0  0  0  0  0  0  0  0  0  0  0  0
    9.6490   40.4440   13.6750 C   0  0  0  0  0  0  0  0  0  0  0  0
   11.9590   39.7670   14.3430 C   0  0  0  0  0  0  0  0  0  0  0  0
   12.3150   38.5110   15.1020 C   0  0  0  0  0  0  0  0  0  0  0  0
   11.6460   37.3000   15.1360 C   0  0  0  0  0  0  0  0  0  0  0  0
   10.4080   36.8730   14.4120 C   0  0  0  0  0  0  0  0  0  0  0  0
    9.3040   37.3080   14.8040 O   0  0  0  0  0  0  0  0  0  0  0  0
   10.4760   36.0820   13.4460 O   0  0  0  0  0  1  0  0  0  0  0  0
   12.3140   36.4370   16.0320 N   0  0  0  0  0  0  0  0  0  0  0  0
   11.9790   35.0550   16.3840 C   0  0  0  0  0  0  0  0  0  0  0  0
   10.4970   34.6900   16.2280 C   0  0  0  0  0  0  0  0  0  0  0  0
   10.0830   33.7230   15.2780 C   0  0  0  0  0  0  0  0  0  0  0  0
    8.7260   33.3860   15.1320 C   0  0  0  0  0  0  0  0  0  0  0  0
    7.7570   34.0120   15.9320 C   0  0  0  0  0  0  0  0  0  0  0  0
    8.1430   34.9770   16.8820 C   0  0  0  0  0  0  0  0  0  0  0  0
    7.1550   35.5960   17.6770 C   0  0  0  0  0  0  0  0  0  0  0  0
    7.5170   36.5630   18.6310 C   0  0  0  0  0  0  0  0  0  0  0  0
    8.8700   36.9130   18.7930 C   0  0  0  0  0  0  0  0  0  0  0  0
    9.8600   36.2990   18.0020 C   0  0  0  0  0  0  0  0  0  0  0  0
    9.5130   35.3230   17.0360 C   0  0  0  0  0  0  0  0  0  0  0  0
   13.4100   37.0970   16.5720 C   0  0  0  0  0  0  0  0  0  0  0  0
   14.3800   36.6940   17.5120 C   0  0  0  0  0  0  0  0  0  0  0  0
   15.4080   37.5780   17.8820 C   0  0  0  0  0  0  0  0  0  0  0  0
   15.4620   38.8600   17.3100 C   0  0  0  0  0  0  0  0  0  0  0  0
   16.4530   39.7160   17.6590 F   0  0  0  0  0  0  0  0  0  0  0  0
   14.4880   39.2580   16.3740 C   0  0  0  0  0  0  0  0  0  0  0  0
   13.4360   38.3920   15.9870 C   0  0  0  0  0  0  0  0  0  0  0  0
   11.0691   40.4855   20.1174 H   0  0  0  0  0  0  0  0  0  0  0  0
   11.1372   41.8663   18.9704 H   0  0  0  0  0  0  0  0  0  0  0  0
    9.7158   40.7680   18.9704 H   0  0  0  0  0  0  0  0  0  0  0  0
   12.5316   39.7377   18.3863 H   0  0  0  0  0  0  0  0  0  0  0  0
   10.9550   38.9788   17.9876 H   0  0  0  0  0  0  0  0  0  0  0  0
    8.6544   40.5831   14.1239 H   0  0  0  0  0  0  0  0  0  0  0  0
    9.8953   41.3164   13.0520 H   0  0  0  0  0  0  0  0  0  0  0  0
    9.6465   39.5375   13.0520 H   0  0  0  0  0  0  0  0  0  0  0  0
   11.9371   39.5364   13.2677 H   0  0  0  0  0  0  0  0  0  0  0  0
   12.7191   40.5276   14.5749 H   0  0  0  0  0  0  0  0  0  0  0  0
   12.5657   34.3859   15.7374 H   0  0  0  0  0  0  0  0  0  0  0  0
   12.2135   34.9433   17.4529 H   0  0  0  0  0  0  0  0  0  0  0  0
   10.8349   33.2287   14.6453 H   0  0  0  0  0  0  0  0  0  0  0  0
    8.4234   32.6317   14.3908 H   0  0  0  0  0  0  0  0  0  0  0  0
    6.6953   33.7484   15.8166 H   0  0  0  0  0  0  0  0  0  0  0  0
    6.0976   35.3208   17.5497 H   0  0  0  0  0  0  0  0  0  0  0  0
    6.7448   37.0445   19.2489 H   0  0  0  0  0  0  0  0  0  0  0  0
    9.1553   37.6686   19.5398 H   0  0  0  0  0  0  0  0  0  0  0  0
   10.9149   36.5805   18.1358 H   0  0  0  0  0  0  0  0  0  0  0  0
   14.3324   35.6885   17.9556 H   0  0  0  0  0  0  0  0  0  0  0  0
   16.1665   37.2677   18.6158 H   0  0  0  0  0  0  0  0  0  0  0  0
   14.5455   40.2643   15.9334 H   0  0  0  0  0  0  0  0  0  0  0  0
  1  2  1  0
  2  3  1  0
  3  4  1  0
  4  5  2  0
  4  6  1  0
  6  7  1  0
  6  8  1  0
  8  9  1  0
  9 10  2  0
 10 11  1  0
 11 12  2  0
 11 13  1  0
 10 14  1  0
 14 15  1  0
 15 16  1  0
 16 17  2  0
 17 18  1  0
 18 19  2  0
 19 20  1  0
 20 21  2  0
 21 22  1  0
 22 23  2  0
 23 24  1  0
 24 25  2  0
 14 26  1  0
 26 27  2  0
 27 28  1  0
 28 29  2  0
 29 30  1  0
 29 31  1  0
 31 32  2  0
 32  9  1  0
 25 16  1  0
 32 26  1  0
 25 20  1  0
  1 33  1  0
  1 34  1  0
  1 35  1  0
  2 36  1  0
  2 37  1  0
  7 38  1  0
  7 39  1  0
  7 40  1  0
  8 41  1  0
  8 42  1  0
 15 43  1  0
 15 44  1  0
 17 45  1  0
 18 46  1  0
 19 47  1  0
 21 48  1  0
 22 49  1  0
 23 50  1  0
 24 51  1  0
 27 52  1  0
 28 53  1  0
 31 54  1  0
M  CHG  1  13  -1
M  END
>  <meeko>  (5) 
{"free_energy": -3.77, "intermolecular_energy": -6.16, "internal_energy": -2.33, "cluster_size": 38, "cluster_id": 116, "rank_in_cluster": 36}

$$$$

     RDKit          3D

 54 57  0  0  0  0  0  0  0  0999 V2000
   14.8850   42.2900   11.5320 C   0  0  0  0  0  0  0  0  0  0  0  0
   16.3490   41.9860   11.2060 C   0  0  0  0  0  0  0  0  0  0  0  0
   16.4610   41.6400    9.8350 O   0  0  0  0  0  0  0  0  0  0  0  0
   16.8780   40.4060    9.4810 C   0  0  0  0  0  0  0  0  0  0  0  0
   17.8820   39.8680    9.9530 O   0  0  0  0  0  0  0  0  0  0  0  0
   16.0140   39.8490    8.5290 N   0  0  0  0  0  0  0  0  0  0  0  0
   15.9050   40.3840    7.1680 C   0  0  0  0  0  0  0  0  0  0  0  0
   15.1470   38.7110    8.8610 C   0  0  0  0  0  0  0  0  0  0  0  0
   14.4400   38.8960   10.1830 C   0  0  0  0  0  0  0  0  0  0  0  0
   13.1510   39.3370   10.4210 C   0  0  0  0  0  0  0  0  0  0  0  0
   12.0790   39.7230    9.4510 C   0  0  0  0  0  0  0  0  0  0  0  0
   11.5680   38.8340    8.7370 O   0  0  0  0  0  0  0  0  0  0  0  0
   11.7170   40.9150    9.3430 O   0  0  0  0  0  1  0  0  0  0  0  0
   12.9470   39.4120   11.8160 N   0  0  0  0  0  0  0  0  0  0  0  0
   11.7380   39.8170   12.5390 C   0  0  0  0  0  0  0  0  0  0  0  0
   10.9760   38.6690   13.2140 C   0  0  0  0  0  0  0  0  0  0  0  0
   11.0580   38.4680   14.6150 C   0  0  0  0  0  0  0  0  0  0  0  0
   10.3610   37.4180   15.2380 C   0  0  0  0  0  0  0  0  0  0  0  0
    9.5710   36.5470   14.4710 C   0  0  0  0  0  0  0  0  0  0  0  0
    9.4740   36.7250   13.0780 C   0  0  0  0  0  0  0  0  0  0  0  0
    8.6760   35.8400   12.3230 C   0  0  0  0  0  0  0  0  0  0  0  0
    8.5660   35.9980   10.9300 C   0  0  0  0  0  0  0  0  0  0  0  0
    9.2540   37.0430   10.2880 C   0  0  0  0  0  0  0  0  0  0  0  0
   10.0530   37.9290   11.0360 C   0  0  0  0  0  0  0  0  0  0  0  0
   10.1750   37.7850   12.4400 C   0  0  0  0  0  0  0  0  0  0  0  0
   14.1070   39.0180   12.4700 C   0  0  0  0  0  0  0  0  0  0  0  0
   14.4290   38.9280   13.8400 C   0  0  0  0  0  0  0  0  0  0  0  0
   15.7020   38.4810   14.2320 C   0  0  0  0  0  0  0  0  0  0  0  0
   16.6470   38.1250   13.2550 C   0  0  0  0  0  0  0  0  0  0  0  0
   17.8750   37.6900   13.6270 F   0  0  0  0  0  0  0  0  0  0  0  0
   16.3190   38.2210   11.8890 C   0  0  0  0  0  0  0  0  0  0  0  0
   15.0470   38.6740   11.4620 C   0  0  0  0  0  0  0  0  0  0  0  0
   14.7505   42.3179   12.6234 H   0  0  0  0  0  0  0  0  0  0  0  0
   14.6087   43.2647   11.1035 H   0  0  0  0  0  0  0  0  0  0  0  0
   14.2435   41.5059   11.1035 H   0  0  0  0  0  0  0  0  0  0  0  0
   16.9637   42.8746   11.4123 H   0  0  0  0  0  0  0  0  0  0  0  0
   16.6991   41.1487   11.8275 H   0  0  0  0  0  0  0  0  0  0  0  0
   15.6856   41.4609    7.2138 H   0  0  0  0  0  0  0  0  0  0  0  0
   16.8539   40.2255    6.6346 H   0  0  0  0  0  0  0  0  0  0  0  0
   15.0938   39.8669    6.6346 H   0  0  0  0  0  0  0  0  0  0  0  0
   14.3922   38.5983    8.0688 H   0  0  0  0  0  0  0  0  0  0  0  0
   15.7818   37.8162    8.9410 H   0  0  0  0  0  0  0  0  0  0  0  0
   12.0300   40.5377   13.3170 H   0  0  0  0  0  0  0  0  0  0  0  0
   11.0558   40.2413   11.7876 H   0  0  0  0  0  0  0  0  0  0  0  0
   11.6764   39.1439   15.2239 H   0  0  0  0  0  0  0  0  0  0  0  0
   10.4346   37.2788   16.3267 H   0  0  0  0  0  0  0  0  0  0  0  0
    9.0273   35.7247   14.9590 H   0  0  0  0  0  0  0  0  0  0  0  0
    8.1377   35.0231   12.8259 H   0  0  0  0  0  0  0  0  0  0  0  0
    7.9434   35.3059   10.3440 H   0  0  0  0  0  0  0  0  0  0  0  0
    9.1678   37.1686    9.1986 H   0  0  0  0  0  0  0  0  0  0  0  0
   10.5885   38.7422   10.5243 H   0  0  0  0  0  0  0  0  0  0  0  0
   13.6848   39.2073   14.6004 H   0  0  0  0  0  0  0  0  0  0  0  0
   15.9578   38.4100   15.2995 H   0  0  0  0  0  0  0  0  0  0  0  0
   17.0686   37.9374   11.1356 H   0  0  0  0  0  0  0  0  0  0  0  0
  1  2  1  0
  2  3  1  0
  3  4  1  0
  4  5  2  0
  4  6  1  0
  6  7  1  0
  6  8  1  0
  8  9  1  0
  9 10  2  0
 10 11  1  0
 11 12  2  0
 11 13  1  0
 10 14  1  0
 14 15  1  0
 15 16  1  0
 16 17  2  0
 17 18  1  0
 18 19  2  0
 19 20  1  0
 20 21  2  0
 21 22  1  0
 22 23  2  0
 23 24  1  0
 24 25  2  0
 14 26  1  0
 26 27  2  0
 27 28  1  0
 28 29  2  0
 29 30  1  0
 29 31  1  0
 31 32  2  0
 32  9  1  0
 25 16  1  0
 32 26  1  0
 25 20  1  0
  1 33  1  0
  1 34  1  0
  1 35  1  0
  2 36  1  0
  2 37  1  0
  7 38  1  0
  7 39  1  0
  7 40  1  0
  8 41  1  0
  8 42  1  0
 15 43  1  0
 15 44  1  0
 17 45  1  0
 18 46  1  0
 19 47  1  0
 21 48  1  0
 22 49  1  0
 23 50  1  0
 24 51  1  0
 27 52  1  0
 28 53  1  0
 31 54  1  0
M  CHG  1  13  -1
M  END
>  <meeko>  (6) 
{"free_energy": -4.03, "intermolecular_energy": -6.42, "internal_energy": -2.47, "cluster_size": 11, "cluster_id": 112, "rank_in_cluster": 11}

$$$$

     RDKit          3D

 54 57  0  0  0  0  0  0  0  0999 V2000
    7.3540   35.1370    7.5420 C   0  0  0  0  0  0  0  0  0  0  0  0
    7.6890   34.8860    9.0150 C   0  0  0  0  0  0  0  0  0  0  0  0
    7.7620   36.1290    9.6950 O   0  0  0  0  0  0  0  0  0  0  0  0
    8.9180   36.8260    9.7100 C   0  0  0  0  0  0  0  0  0  0  0  0
    9.3550   37.4340    8.7320 O   0  0  0  0  0  0  0  0  0  0  0  0
    9.5180   36.7540   10.9740 N   0  0  0  0  0  0  0  0  0  0  0  0
    8.7360   36.5610   12.2000 C   0  0  0  0  0  0  0  0  0  0  0  0
   10.9710   36.9000   11.1360 C   0  0  0  0  0  0  0  0  0  0  0  0
   11.3510   38.2480   11.7020 C   0  0  0  0  0  0  0  0  0  0  0  0
   11.5700   39.4390   11.0330 C   0  0  0  0  0  0  0  0  0  0  0  0
   11.4610   39.7460    9.5720 C   0  0  0  0  0  0  0  0  0  0  0  0
   11.7910   38.8670    8.7480 O   0  0  0  0  0  0  0  0  0  0  0  0
   11.0650   40.8670    9.1850 O   0  0  0  0  0  1  0  0  0  0  0  0
   11.9660   40.4200   11.9670 N   0  0  0  0  0  0  0  0  0  0  0  0
   12.2940   41.8280   11.7250 C   0  0  0  0  0  0  0  0  0  0  0  0
   11.4060   42.8340   12.4700 C   0  0  0  0  0  0  0  0  0  0  0  0
   11.9760   43.8210   13.3120 C   0  0  0  0  0  0  0  0  0  0  0  0
   11.1660   44.7440   13.9960 C   0  0  0  0  0  0  0  0  0  0  0  0
    9.7700   44.6960   13.8510 C   0  0  0  0  0  0  0  0  0  0  0  0
    9.1800   43.7240   13.0210 C   0  0  0  0  0  0  0  0  0  0  0  0
    7.7770   43.6910   12.8880 C   0  0  0  0  0  0  0  0  0  0  0  0
    7.1650   42.7280   12.0650 C   0  0  0  0  0  0  0  0  0  0  0  0
    7.9580   41.7960   11.3720 C   0  0  0  0  0  0  0  0  0  0  0  0
    9.3600   41.8240   11.5010 C   0  0  0  0  0  0  0  0  0  0  0  0
    9.9920   42.7870   12.3260 C   0  0  0  0  0  0  0  0  0  0  0  0
   12.0020   39.8560   13.2350 C   0  0  0  0  0  0  0  0  0  0  0  0
   12.3430   40.3930   14.4940 C   0  0  0  0  0  0  0  0  0  0  0  0
   12.2820   39.5850   15.6410 C   0  0  0  0  0  0  0  0  0  0  0  0
   11.8800   38.2430   15.5270 C   0  0  0  0  0  0  0  0  0  0  0  0
   11.8150   37.4590   16.6290 F   0  0  0  0  0  0  0  0  0  0  0  0
   11.5440   37.7120   14.2660 C   0  0  0  0  0  0  0  0  0  0  0  0
   11.6020   38.5000   13.0910 C   0  0  0  0  0  0  0  0  0  0  0  0
    6.4754   35.7953    7.4728 H   0  0  0  0  0  0  0  0  0  0  0  0
    8.2115   35.6168    7.0475 H   0  0  0  0  0  0  0  0  0  0  0  0
    7.1344   34.1792    7.0475 H   0  0  0  0  0  0  0  0  0  0  0  0
    6.9045   34.2633    9.4698 H   0  0  0  0  0  0  0  0  0  0  0  0
    8.6553   34.3658    9.0909 H   0  0  0  0  0  0  0  0  0  0  0  0
    9.3821   36.7204   13.0759 H   0  0  0  0  0  0  0  0  0  0  0  0
    7.9046   37.2809   12.2217 H   0  0  0  0  0  0  0  0  0  0  0  0
    8.3350   35.5369   12.2217 H   0  0  0  0  0  0  0  0  0  0  0  0
   11.3318   36.1155   11.8175 H   0  0  0  0  0  0  0  0  0  0  0  0
   11.4317   36.8102   10.1412 H   0  0  0  0  0  0  0  0  0  0  0  0
   13.3357   41.9949   12.0366 H   0  0  0  0  0  0  0  0  0  0  0  0
   12.1278   42.0042   10.6520 H   0  0  0  0  0  0  0  0  0  0  0  0
   13.0685   43.8655   13.4321 H   0  0  0  0  0  0  0  0  0  0  0  0
   11.6257   45.5040   14.6449 H   0  0  0  0  0  0  0  0  0  0  0  0
    9.1368   45.4187   14.3866 H   0  0  0  0  0  0  0  0  0  0  0  0
    7.1581   44.4213   13.4300 H   0  0  0  0  0  0  0  0  0  0  0  0
    6.0699   42.7041   11.9639 H   0  0  0  0  0  0  0  0  0  0  0  0
    7.4816   41.0428   10.7272 H   0  0  0  0  0  0  0  0  0  0  0  0
    9.9712   41.0901   10.9552 H   0  0  0  0  0  0  0  0  0  0  0  0
   12.6565   41.4441   14.5773 H   0  0  0  0  0  0  0  0  0  0  0  0
   12.5476   40.0005   16.6242 H   0  0  0  0  0  0  0  0  0  0  0  0
   11.2292   36.6606   14.1926 H   0  0  0  0  0  0  0  0  0  0  0  0
  1  2  1  0
  2  3  1  0
  3  4  1  0
  4  5  2  0
  4  6  1  0
  6  7  1  0
  6  8  1  0
  8  9  1  0
  9 10  2  0
 10 11  1  0
 11 12  2  0
 11 13  1  0
 10 14  1  0
 14 15  1  0
 15 16  1  0
 16 17  2  0
 17 18  1  0
 18 19  2  0
 19 20  1  0
 20 21  2  0
 21 22  1  0
 22 23  2  0
 23 24  1  0
 24 25  2  0
 14 26  1  0
 26 27  2  0
 27 28  1  0
 28 29  2  0
 29 30  1  0
 29 31  1  0
 31 32  2  0
 32  9  1  0
 25 16  1  0
 32 26  1  0
 25 20  1  0
  1 33  1  0
  1 34  1  0
  1 35  1  0
  2 36  1  0
  2 37  1  0
  7 38  1  0
  7 39  1  0
  7 40  1  0
  8 41  1  0
  8 42  1  0
 15 43  1  0
 15 44  1  0
 17 45  1  0
 18 46  1  0
 19 47  1  0
 21 48  1  0
 22 49  1  0
 23 50  1  0
 24 51  1  0
 27 52  1  0
 28 53  1  0
 31 54  1  0
M  CHG  1  13  -1
M  END
>  <meeko>  (7) 
{"free_energy": -4.52, "intermolecular_energy": -6.91, "internal_energy": -2.03, "cluster_size": 7, "cluster_id": 237, "rank_in_cluster": 2}

$$$$

     RDKit          3D

 54 57  0  0  0  0  0  0  0  0999 V2000
    8.9900   37.0830   18.1250 C   0  0  0  0  0  0  0  0  0  0  0  0
    8.3770   36.9490   16.7290 C   0  0  0  0  0  0  0  0  0  0  0  0
    7.9940   35.6000   16.5140 O   0  0  0  0  0  0  0  0  0  0  0  0
    8.5690   34.8830   15.5240 C   0  0  0  0  0  0  0  0  0  0  0  0
    8.1370   34.8540   14.3710 O   0  0  0  0  0  0  0  0  0  0  0  0
    9.6990   34.2060   16.0000 N   0  0  0  0  0  0  0  0  0  0  0  0
    9.6160   33.1970   17.0610 C   0  0  0  0  0  0  0  0  0  0  0  0
   11.0390   34.4990   15.4730 C   0  0  0  0  0  0  0  0  0  0  0  0
   11.3370   35.9800   15.4560 C   0  0  0  0  0  0  0  0  0  0  0  0
   10.9260   36.9360   14.5440 C   0  0  0  0  0  0  0  0  0  0  0  0
   10.0490   36.7910   13.3410 C   0  0  0  0  0  0  0  0  0  0  0  0
   10.3250   35.9090   12.4990 O   0  0  0  0  0  0  0  0  0  0  0  0
    9.0710   37.5510   13.1710 O   0  0  0  0  0  1  0  0  0  0  0  0
   11.5010   38.1760   14.8960 N   0  0  0  0  0  0  0  0  0  0  0  0
   11.3440   39.4730   14.2320 C   0  0  0  0  0  0  0  0  0  0  0  0
   11.6040   39.4590   12.7190 C   0  0  0  0  0  0  0  0  0  0  0  0
   12.8040   38.9180   12.1940 C   0  0  0  0  0  0  0  0  0  0  0  0
   13.0460   38.9030   10.8090 C   0  0  0  0  0  0  0  0  0  0  0  0
   12.0920   39.4300    9.9240 C   0  0  0  0  0  0  0  0  0  0  0  0
   10.8930   39.9740   10.4220 C   0  0  0  0  0  0  0  0  0  0  0  0
    9.9460   40.5000    9.5180 C   0  0  0  0  0  0  0  0  0  0  0  0
    8.7420   41.0490    9.9920 C   0  0  0  0  0  0  0  0  0  0  0  0
    8.4810   41.0720   11.3740 C   0  0  0  0  0  0  0  0  0  0  0  0
    9.4220   40.5500   12.2820 C   0  0  0  0  0  0  0  0  0  0  0  0
   10.6400   39.9930   11.8210 C   0  0  0  0  0  0  0  0  0  0  0  0
   12.2800   38.0130   16.0340 C   0  0  0  0  0  0  0  0  0  0  0  0
   13.0650   38.9210   16.7730 C   0  0  0  0  0  0  0  0  0  0  0  0
   13.7580   38.4820   17.9140 C   0  0  0  0  0  0  0  0  0  0  0  0
   13.6620   37.1370   18.3120 C   0  0  0  0  0  0  0  0  0  0  0  0
   14.3250   36.7080   19.4130 F   0  0  0  0  0  0  0  0  0  0  0  0
   12.8790   36.2350   17.5670 C   0  0  0  0  0  0  0  0  0  0  0  0
   12.1750   36.6470   16.4090 C   0  0  0  0  0  0  0  0  0  0  0  0
    8.2127   36.9131   18.8846 H   0  0  0  0  0  0  0  0  0  0  0  0
    9.7907   36.3387   18.2468 H   0  0  0  0  0  0  0  0  0  0  0  0
    9.4071   38.0935   18.2468 H   0  0  0  0  0  0  0  0  0  0  0  0
    7.4930   37.5990   16.6517 H   0  0  0  0  0  0  0  0  0  0  0  0
    9.1160   37.2481   15.9711 H   0  0  0  0  0  0  0  0  0  0  0  0
    9.6568   33.6925   18.0422 H   0  0  0  0  0  0  0  0  0  0  0  0
    8.6694   32.6445   16.9683 H   0  0  0  0  0  0  0  0  0  0  0  0
   10.4596   32.4972   16.9683 H   0  0  0  0  0  0  0  0  0  0  0  0
   11.7855   33.9952   16.1046 H   0  0  0  0  0  0  0  0  0  0  0  0
   11.0796   34.1356   14.4356 H   0  0  0  0  0  0  0  0  0  0  0  0
   10.3135   39.8199   14.3987 H   0  0  0  0  0  0  0  0  0  0  0  0
   12.1029   40.1381   14.6698 H   0  0  0  0  0  0  0  0  0  0  0  0
   13.5573   38.5037   12.8802 H   0  0  0  0  0  0  0  0  0  0  0  0
   13.9828   38.4784   10.4189 H   0  0  0  0  0  0  0  0  0  0  0  0
   12.2816   39.4178    8.8405 H   0  0  0  0  0  0  0  0  0  0  0  0
   10.1508   40.4804    8.4374 H   0  0  0  0  0  0  0  0  0  0  0  0
    8.0063   41.4593    9.2846 H   0  0  0  0  0  0  0  0  0  0  0  0
    7.5384   41.4993   11.7467 H   0  0  0  0  0  0  0  0  0  0  0  0
    9.2090   40.5750   13.3609 H   0  0  0  0  0  0  0  0  0  0  0  0
   13.1351   39.9723   16.4569 H   0  0  0  0  0  0  0  0  0  0  0  0
   14.3725   39.1872   18.4929 H   0  0  0  0  0  0  0  0  0  0  0  0
   12.8124   35.1861   17.8916 H   0  0  0  0  0  0  0  0  0  0  0  0
  1  2  1  0
  2  3  1  0
  3  4  1  0
  4  5  2  0
  4  6  1  0
  6  7  1  0
  6  8  1  0
  8  9  1  0
  9 10  2  0
 10 11  1  0
 11 12  2  0
 11 13  1  0
 10 14  1  0
 14 15  1  0
 15 16  1  0
 16 17  2  0
 17 18  1  0
 18 19  2  0
 19 20  1  0
 20 21  2  0
 21 22  1  0
 22 23  2  0
 23 24  1  0
 24 25  2  0
 14 26  1  0
 26 27  2  0
 27 28  1  0
 28 29  2  0
 29 30  1  0
 29 31  1  0
 31 32  2  0
 32  9  1  0
 25 16  1  0
 32 26  1  0
 25 20  1  0
  1 33  1  0
  1 34  1  0
  1 35  1  0
  2 36  1  0
  2 37  1  0
  7 38  1  0
  7 39  1  0
  7 40  1  0
  8 41  1  0
  8 42  1  0
 15 43  1  0
 15 44  1  0
 17 45  1  0
 18 46  1  0
 19 47  1  0
 21 48  1  0
 22 49  1  0
 23 50  1  0
 24 51  1  0
 27 52  1  0
 28 53  1  0
 31 54  1  0
M  CHG  1  13  -1
M  END
>  <meeko>  (8) 
{"free_energy": -4.69, "intermolecular_energy": -7.08, "internal_energy": -2.3, "cluster_size": 52, "cluster_id": 33, "rank_in_cluster": 37}

$$$$

     RDKit          3D

 54 57  0  0  0  0  0  0  0  0999 V2000
   11.5490   37.4940   20.1260 C   0  0  0  0  0  0  0  0  0  0  0  0
   11.2740   38.9990   20.1810 C   0  0  0  0  0  0  0  0  0  0  0  0
   12.1070   39.6600   19.2420 O   0  0  0  0  0  0  0  0  0  0  0  0
   11.5690   40.2240   18.1400 C   0  0  0  0  0  0  0  0  0  0  0  0
   11.3730   41.4350   18.0250 O   0  0  0  0  0  0  0  0  0  0  0  0
   11.2850   39.2470   17.1770 N   0  0  0  0  0  0  0  0  0  0  0  0
   12.3380   38.4510   16.5380 C   0  0  0  0  0  0  0  0  0  0  0  0
    9.9070   38.9910   16.7350 C   0  0  0  0  0  0  0  0  0  0  0  0
    9.8350   37.9070   15.6850 C   0  0  0  0  0  0  0  0  0  0  0  0
   10.2060   37.9650   14.3530 C   0  0  0  0  0  0  0  0  0  0  0  0
   10.8130   39.0930   13.5800 C   0  0  0  0  0  0  0  0  0  0  0  0
   12.0570   39.1560   13.4860 O   0  0  0  0  0  0  0  0  0  0  0  0
   10.0880   39.9670   13.0550 O   0  0  0  0  0  1  0  0  0  0  0  0
    9.8990   36.7300   13.7420 N   0  0  0  0  0  0  0  0  0  0  0  0
   10.1200   36.3230   12.3520 C   0  0  0  0  0  0  0  0  0  0  0  0
    9.9300   37.4380   11.3150 C   0  0  0  0  0  0  0  0  0  0  0  0
    8.6340   37.8980   10.9720 C   0  0  0  0  0  0  0  0  0  0  0  0
    8.4560   38.9190   10.0230 C   0  0  0  0  0  0  0  0  0  0  0  0
    9.5710   39.4980    9.3970 C   0  0  0  0  0  0  0  0  0  0  0  0
   10.8690   39.0570    9.7180 C   0  0  0  0  0  0  0  0  0  0  0  0
   11.9770   39.6490    9.0790 C   0  0  0  0  0  0  0  0  0  0  0  0
   13.2830   39.2240    9.3840 C   0  0  0  0  0  0  0  0  0  0  0  0
   13.4820   38.2040   10.3320 C   0  0  0  0  0  0  0  0  0  0  0  0
   12.3790   37.6080   10.9740 C   0  0  0  0  0  0  0  0  0  0  0  0
   11.0580   38.0250   10.6780 C   0  0  0  0  0  0  0  0  0  0  0  0
    9.3300   35.8830   14.6840 C   0  0  0  0  0  0  0  0  0  0  0  0
    8.8400   34.5640   14.5870 C   0  0  0  0  0  0  0  0  0  0  0  0
    8.3140   33.9260   15.7230 C   0  0  0  0  0  0  0  0  0  0  0  0
    8.2820   34.6080   16.9520 C   0  0  0  0  0  0  0  0  0  0  0  0
    7.7800   33.9970   18.0510 F   0  0  0  0  0  0  0  0  0  0  0  0
    8.7690   35.9260   17.0400 C   0  0  0  0  0  0  0  0  0  0  0  0
    9.2990   36.5970   15.9110 C   0  0  0  0  0  0  0  0  0  0  0  0
   11.6216   37.0969   21.1492 H   0  0  0  0  0  0  0  0  0  0  0  0
   10.7280   36.9904   19.5946 H   0  0  0  0  0  0  0  0  0  0  0  0
   12.4950   37.3133   19.5946 H   0  0  0  0  0  0  0  0  0  0  0  0
   10.2189   39.1895   19.9349 H   0  0  0  0  0  0  0  0  0  0  0  0
   11.4851   39.3765   21.1924 H   0  0  0  0  0  0  0  0  0  0  0  0
   12.9617   37.9795   17.3117 H   0  0  0  0  0  0  0  0  0  0  0  0
   11.8794   37.6718   15.9115 H   0  0  0  0  0  0  0  0  0  0  0  0
   12.9626   39.1047   15.9115 H   0  0  0  0  0  0  0  0  0  0  0  0
    9.3080   38.6821   17.6044 H   0  0  0  0  0  0  0  0  0  0  0  0
    9.5182   39.9184   16.2892 H   0  0  0  0  0  0  0  0  0  0  0  0
   11.1503   35.9476   12.2654 H   0  0  0  0  0  0  0  0  0  0  0  0
    9.3590   35.5607   12.1287 H   0  0  0  0  0  0  0  0  0  0  0  0
    7.7542   37.4490   11.4560 H   0  0  0  0  0  0  0  0  0  0  0  0
    7.4426   39.2646    9.7706 H   0  0  0  0  0  0  0  0  0  0  0  0
    9.4305   40.2974    8.6546 H   0  0  0  0  0  0  0  0  0  0  0  0
   11.8199   40.4470    8.3384 H   0  0  0  0  0  0  0  0  0  0  0  0
   14.1455   39.6877    8.8829 H   0  0  0  0  0  0  0  0  0  0  0  0
   14.5023   37.8707   10.5727 H   0  0  0  0  0  0  0  0  0  0  0  0
   12.5452   36.8103   11.7130 H   0  0  0  0  0  0  0  0  0  0  0  0
    8.8696   34.0353   13.6229 H   0  0  0  0  0  0  0  0  0  0  0  0
    7.9292   32.8980   15.6511 H   0  0  0  0  0  0  0  0  0  0  0  0
    8.7371   36.4468   18.0084 H   0  0  0  0  0  0  0  0  0  0  0  0
  1  2  1  0
  2  3  1  0
  3  4  1  0
  4  5  2  0
  4  6  1  0
  6  7  1  0
  6  8  1  0
  8  9  1  0
  9 10  2  0
 10 11  1  0
 11 12  2  0
 11 13  1  0
 10 14  1  0
 14 15  1  0
 15 16  1  0
 16 17  2  0
 17 18  1  0
 18 19  2  0
 19 20  1  0
 20 21  2  0
 21 22  1  0
 22 23  2  0
 23 24  1  0
 24 25  2  0
 14 26  1  0
 26 27  2  0
 27 28  1  0
 28 29  2  0
 29 30  1  0
 29 31  1  0
 31 32  2  0
 32  9  1  0
 25 16  1  0
 32 26  1  0
 25 20  1  0
  1 33  1  0
  1 34  1  0
  1 35  1  0
  2 36  1  0
  2 37  1  0
  7 38  1  0
  7 39  1  0
  7 40  1  0
  8 41  1  0
  8 42  1  0
 15 43  1  0
 15 44  1  0
 17 45  1  0
 18 46  1  0
 19 47  1  0
 21 48  1  0
 22 49  1  0
 23 50  1  0
 24 51  1  0
 27 52  1  0
 28 53  1  0
 31 54  1  0
M  CHG  1  13  -1
M  END
>  <meeko>  (9) 
{"free_energy": -4.74, "intermolecular_energy": -7.13, "internal_energy": -1.71, "cluster_size": 14, "cluster_id": 123, "rank_in_cluster": 8}

$$$$

     RDKit          3D

 54 57  0  0  0  0  0  0  0  0999 V2000
   12.7770   35.6550   16.6580 C   0  0  0  0  0  0  0  0  0  0  0  0
   11.3380   36.0250   17.0260 C   0  0  0  0  0  0  0  0  0  0  0  0
   10.4550   35.0520   16.4930 O   0  0  0  0  0  0  0  0  0  0  0  0
    9.7980   35.2960   15.3380 C   0  0  0  0  0  0  0  0  0  0  0  0
    9.9190   34.5990   14.3290 O   0  0  0  0  0  0  0  0  0  0  0  0
    8.9780   36.4250   15.4680 N   0  0  0  0  0  0  0  0  0  0  0  0
    7.6600   36.3620   16.1080 C   0  0  0  0  0  0  0  0  0  0  0  0
    9.3920   37.7310   14.9380 C   0  0  0  0  0  0  0  0  0  0  0  0
   10.2650   37.6010   13.7130 C   0  0  0  0  0  0  0  0  0  0  0  0
   11.5530   38.0660   13.5130 C   0  0  0  0  0  0  0  0  0  0  0  0
   12.4610   38.7940   14.4530 C   0  0  0  0  0  0  0  0  0  0  0  0
   13.6370   38.3920   14.5840 O   0  0  0  0  0  0  0  0  0  0  0  0
   12.0450   39.7730   15.1100 O   0  0  0  0  0  1  0  0  0  0  0  0
   11.9430   37.7680   12.1900 N   0  0  0  0  0  0  0  0  0  0  0  0
   13.2200   38.0570   11.5300 C   0  0  0  0  0  0  0  0  0  0  0  0
   13.1540   39.1370   10.4420 C   0  0  0  0  0  0  0  0  0  0  0  0
   14.0910   39.1540    9.3790 C   0  0  0  0  0  0  0  0  0  0  0  0
   14.0350   40.1410    8.3800 C   0  0  0  0  0  0  0  0  0  0  0  0
   13.0410   41.1310    8.4270 C   0  0  0  0  0  0  0  0  0  0  0  0
   12.1000   41.1370    9.4740 C   0  0  0  0  0  0  0  0  0  0  0  0
   11.1080   42.1400    9.5050 C   0  0  0  0  0  0  0  0  0  0  0  0
   10.1580   42.1650   10.5420 C   0  0  0  0  0  0  0  0  0  0  0  0
   10.1970   41.1850   11.5500 C   0  0  0  0  0  0  0  0  0  0  0  0
   11.1850   40.1820   11.5250 C   0  0  0  0  0  0  0  0  0  0  0  0
   12.1500   40.1410   10.4880 C   0  0  0  0  0  0  0  0  0  0  0  0
   10.9040   37.1130   11.5420 C   0  0  0  0  0  0  0  0  0  0  0  0
   10.7780   36.6200   10.2270 C   0  0  0  0  0  0  0  0  0  0  0  0
    9.5940   35.9770    9.8300 C   0  0  0  0  0  0  0  0  0  0  0  0
    8.5410   35.8270   10.7490 C   0  0  0  0  0  0  0  0  0  0  0  0
    7.3980   35.2050   10.3730 F   0  0  0  0  0  0  0  0  0  0  0  0
    8.6720   36.3250   12.0590 C   0  0  0  0  0  0  0  0  0  0  0  0
    9.8510   36.9840   12.4870 C   0  0  0  0  0  0  0  0  0  0  0  0
   13.3632   35.5043   17.5765 H   0  0  0  0  0  0  0  0  0  0  0  0
   12.7773   34.7276   16.0665 H   0  0  0  0  0  0  0  0  0  0  0  0
   13.2246   36.4673   16.0665 H   0  0  0  0  0  0  0  0  0  0  0  0
   11.2345   36.0553   18.1207 H   0  0  0  0  0  0  0  0  0  0  0  0
   11.0929   37.0134   16.6101 H   0  0  0  0  0  0  0  0  0  0  0  0
    7.7825   36.3679   17.2011 H   0  0  0  0  0  0  0  0  0  0  0  0
    7.0615   37.2326   15.8015 H   0  0  0  0  0  0  0  0  0  0  0  0
    7.1473   35.4383   15.8015 H   0  0  0  0  0  0  0  0  0  0  0  0
    8.4928   38.3062   14.6723 H   0  0  0  0  0  0  0  0  0  0  0  0
    9.9785   38.2400   15.7170 H   0  0  0  0  0  0  0  0  0  0  0  0
   13.9344   38.3885   12.2979 H   0  0  0  0  0  0  0  0  0  0  0  0
   13.5240   37.1281   11.0252 H   0  0  0  0  0  0  0  0  0  0  0  0
   14.8742   38.3828    9.3351 H   0  0  0  0  0  0  0  0  0  0  0  0
   14.7699   40.1377    7.5615 H   0  0  0  0  0  0  0  0  0  0  0  0
   12.9973   41.9031    7.6447 H   0  0  0  0  0  0  0  0  0  0  0  0
   11.0775   42.9052    8.7153 H   0  0  0  0  0  0  0  0  0  0  0  0
    9.3867   42.9489   10.5645 H   0  0  0  0  0  0  0  0  0  0  0  0
    9.4534   41.2021   12.3604 H   0  0  0  0  0  0  0  0  0  0  0  0
   11.2080   39.4216   12.3195 H   0  0  0  0  0  0  0  0  0  0  0  0
   11.6061   36.7388    9.5128 H   0  0  0  0  0  0  0  0  0  0  0  0
    9.4912   35.5925    8.8045 H   0  0  0  0  0  0  0  0  0  0  0  0
    7.8396   36.1996   12.7670 H   0  0  0  0  0  0  0  0  0  0  0  0
  1  2  1  0
  2  3  1  0
  3  4  1  0
  4  5  2  0
  4  6  1  0
  6  7  1  0
  6  8  1  0
  8  9  1  0
  9 10  2  0
 10 11  1  0
 11 12  2  0
 11 13  1  0
 10 14  1  0
 14 15  1  0
 15 16  1  0
 16 17  2  0
 17 18  1  0
 18 19  2  0
 19 20  1  0
 20 21  2  0
 21 22  1  0
 22 23  2  0
 23 24  1  0
 24 25  2  0
 14 26  1  0
 26 27  2  0
 27 28  1  0
 28 29  2  0
 29 30  1  0
 29 31  1  0
 31 32  2  0
 32  9  1  0
 25 16  1  0
 32 26  1  0
 25 20  1  0
  1 33  1  0
  1 34  1  0
  1 35  1  0
  2 36  1  0
  2 37  1  0
  7 38  1  0
  7 39  1  0
  7 40  1  0
  8 41  1  0
  8 42  1  0
 15 43  1  0
 15 44  1  0
 17 45  1  0
 18 46  1  0
 19 47  1  0
 21 48  1  0
 22 49  1  0
 23 50  1  0
 24 51  1  0
 27 52  1  0
 28 53  1  0
 31 54  1  0
M  CHG  1  13  -1
M  END
>  <meeko>  (10) 
{"free_energy": -4.76, "intermolecular_energy": -7.14, "internal_energy": -1.96, "cluster_size": 251, "cluster_id": 26, "rank_in_cluster": 236}

$$$$

     RDKit          3D

 54 57  0  0  0  0  0  0  0  0999 V2000
   13.2180   39.5660    8.3690 C   0  0  0  0  0  0  0  0  0  0  0  0
   12.8890   40.1730    9.7350 C   0  0  0  0  0  0  0  0  0  0  0  0
   11.5750   39.7920   10.1110 O   0  0  0  0  0  0  0  0  0  0  0  0
   11.2590   38.4850   10.2350 C   0  0  0  0  0  0  0  0  0  0  0  0
   12.0970   37.5990   10.4130 O   0  0  0  0  0  0  0  0  0  0  0  0
    9.8730   38.3030   10.1390 N   0  0  0  0  0  0  0  0  0  0  0  0
    9.0810   38.9020    9.0590 C   0  0  0  0  0  0  0  0  0  0  0  0
    9.1360   37.5210   11.1400 C   0  0  0  0  0  0  0  0  0  0  0  0
    9.5870   37.8270   12.5500 C   0  0  0  0  0  0  0  0  0  0  0  0
    9.7600   36.9570   13.6120 C   0  0  0  0  0  0  0  0  0  0  0  0
    9.5880   35.4720   13.6670 C   0  0  0  0  0  0  0  0  0  0  0  0
    8.4300   35.0010   13.6510 O   0  0  0  0  0  0  0  0  0  0  0  0
   10.5820   34.7190   13.7460 O   0  0  0  0  0  1  0  0  0  0  0  0
   10.1300   37.7020   14.7530 N   0  0  0  0  0  0  0  0  0  0  0  0
   10.4280   37.2130   16.1020 C   0  0  0  0  0  0  0  0  0  0  0  0
    9.3810   37.5730   17.1640 C   0  0  0  0  0  0  0  0  0  0  0  0
    9.4810   38.7780   17.9030 C   0  0  0  0  0  0  0  0  0  0  0  0
    8.5250   39.1120   18.8770 C   0  0  0  0  0  0  0  0  0  0  0  0
    7.4500   38.2450   19.1320 C   0  0  0  0  0  0  0  0  0  0  0  0
    7.3300   37.0410   18.4140 C   0  0  0  0  0  0  0  0  0  0  0  0
    6.2450   36.1810   18.6840 C   0  0  0  0  0  0  0  0  0  0  0  0
    6.1050   34.9730   17.9790 C   0  0  0  0  0  0  0  0  0  0  0  0
    7.0510   34.6210   16.9990 C   0  0  0  0  0  0  0  0  0  0  0  0
    8.1370   35.4750   16.7250 C   0  0  0  0  0  0  0  0  0  0  0  0
    8.2930   36.6960   17.4260 C   0  0  0  0  0  0  0  0  0  0  0  0
   10.1930   39.0490   14.4200 C   0  0  0  0  0  0  0  0  0  0  0  0
   10.4980   40.1930   15.1850 C   0  0  0  0  0  0  0  0  0  0  0  0
   10.4980   41.4610   14.5810 C   0  0  0  0  0  0  0  0  0  0  0  0
   10.1940   41.5810   13.2140 C   0  0  0  0  0  0  0  0  0  0  0  0
   10.1960   42.8000   12.6250 F   0  0  0  0  0  0  0  0  0  0  0  0
    9.8870   40.4340   12.4560 C   0  0  0  0  0  0  0  0  0  0  0  0
    9.8730   39.1440   13.0390 C   0  0  0  0  0  0  0  0  0  0  0  0
   13.7379   38.6069    8.5096 H   0  0  0  0  0  0  0  0  0  0  0  0
   12.2867   39.3995    7.8078 H   0  0  0  0  0  0  0  0  0  0  0  0
   13.8659   40.2554    7.8078 H   0  0  0  0  0  0  0  0  0  0  0  0
   13.6068   39.8057   10.4832 H   0  0  0  0  0  0  0  0  0  0  0  0
   12.9533   41.2696    9.6771 H   0  0  0  0  0  0  0  0  0  0  0  0
    8.2742   39.5122    9.4910 H   0  0  0  0  0  0  0  0  0  0  0  0
    9.7293   39.5378    8.4381 H   0  0  0  0  0  0  0  0  0  0  0  0
    8.6457   38.1051    8.4381 H   0  0  0  0  0  0  0  0  0  0  0  0
    8.0645   37.7539   11.0526 H   0  0  0  0  0  0  0  0  0  0  0  0
    9.3316   36.4559   10.9469 H   0  0  0  0  0  0  0  0  0  0  0  0
   10.5080   36.1168   16.0585 H   0  0  0  0  0  0  0  0  0  0  0  0
   11.3624   37.7051   16.4098 H   0  0  0  0  0  0  0  0  0  0  0  0
   10.3203   39.4627   17.7111 H   0  0  0  0  0  0  0  0  0  0  0  0
    8.6185   40.0525   19.4398 H   0  0  0  0  0  0  0  0  0  0  0  0
    6.7011   38.5075   19.8938 H   0  0  0  0  0  0  0  0  0  0  0  0
    5.5051   36.4569   19.4497 H   0  0  0  0  0  0  0  0  0  0  0  0
    5.2580   34.3046   18.1930 H   0  0  0  0  0  0  0  0  0  0  0  0
    6.9423   33.6767   16.4455 H   0  0  0  0  0  0  0  0  0  0  0  0
    8.8724   35.1906   15.9580 H   0  0  0  0  0  0  0  0  0  0  0  0
   10.7358   40.0927   16.2543 H   0  0  0  0  0  0  0  0  0  0  0  0
   10.7348   42.3560   15.1750 H   0  0  0  0  0  0  0  0  0  0  0  0
    9.6528   40.5432   11.3868 H   0  0  0  0  0  0  0  0  0  0  0  0
  1  2  1  0
  2  3  1  0
  3  4  1  0
  4  5  2  0
  4  6  1  0
  6  7  1  0
  6  8  1  0
  8  9  1  0
  9 10  2  0
 10 11  1  0
 11 12  2  0
 11 13  1  0
 10 14  1  0
 14 15  1  0
 15 16  1  0
 16 17  2  0
 17 18  1  0
 18 19  2  0
 19 20  1  0
 20 21  2  0
 21 22  1  0
 22 23  2  0
 23 24  1  0
 24 25  2  0
 14 26  1  0
 26 27  2  0
 27 28  1  0
 28 29  2  0
 29 30  1  0
 29 31  1  0
 31 32  2  0
 32  9  1  0
 25 16  1  0
 32 26  1  0
 25 20  1  0
  1 33  1  0
  1 34  1  0
  1 35  1  0
  2 36  1  0
  2 37  1  0
  7 38  1  0
  7 39  1  0
  7 40  1  0
  8 41  1  0
  8 42  1  0
 15 43  1  0
 15 44  1  0
 17 45  1  0
 18 46  1  0
 19 47  1  0
 21 48  1  0
 22 49  1  0
 23 50  1  0
 24 51  1  0
 27 52  1  0
 28 53  1  0
 31 54  1  0
M  CHG  1  13  -1
M  END
>  <meeko>  (11) 
{"free_energy": -5.3, "intermolecular_energy": -7.69, "internal_energy": -2.01, "cluster_size": 136, "cluster_id": 23, "rank_in_cluster": 99}

$$$$

     RDKit          3D

 54 57  0  0  0  0  0  0  0  0999 V2000
   13.6530   42.2080   14.9870 C   0  0  0  0  0  0  0  0  0  0  0  0
   13.6510   43.3690   13.9890 C   0  0  0  0  0  0  0  0  0  0  0  0
   13.6920   42.8510   12.6690 O   0  0  0  0  0  0  0  0  0  0  0  0
   13.1010   43.5250   11.6590 C   0  0  0  0  0  0  0  0  0  0  0  0
   13.5780   44.5420   11.1530 O   0  0  0  0  0  0  0  0  0  0  0  0
   11.9030   42.9010   11.2860 N   0  0  0  0  0  0  0  0  0  0  0  0
   10.7100   42.9310   12.1390 C   0  0  0  0  0  0  0  0  0  0  0  0
   11.7930   42.1560   10.0250 C   0  0  0  0  0  0  0  0  0  0  0  0
   11.3550   40.7270   10.2420 C   0  0  0  0  0  0  0  0  0  0  0  0
   10.1030   40.2460   10.5840 C   0  0  0  0  0  0  0  0  0  0  0  0
    8.8230   40.9900   10.8020 C   0  0  0  0  0  0  0  0  0  0  0  0
    8.4400   41.1960   11.9740 O   0  0  0  0  0  0  0  0  0  0  0  0
    8.1400   41.3800    9.8300 O   0  0  0  0  0  1  0  0  0  0  0  0
   10.1810   38.8460   10.7410 N   0  0  0  0  0  0  0  0  0  0  0  0
    9.1100   37.9080   11.0880 C   0  0  0  0  0  0  0  0  0  0  0  0
    8.7380   36.9140    9.9800 C   0  0  0  0  0  0  0  0  0  0  0  0
    8.9820   35.5260   10.1370 C   0  0  0  0  0  0  0  0  0  0  0  0
    8.6430   34.6130    9.1240 C   0  0  0  0  0  0  0  0  0  0  0  0
    8.0560   35.0700    7.9330 C   0  0  0  0  0  0  0  0  0  0  0  0
    7.8050   36.4430    7.7530 C   0  0  0  0  0  0  0  0  0  0  0  0
    7.2150   36.8840    6.5500 C   0  0  0  0  0  0  0  0  0  0  0  0
    6.9550   38.2520    6.3480 C   0  0  0  0  0  0  0  0  0  0  0  0
    7.2860   39.1820    7.3500 C   0  0  0  0  0  0  0  0  0  0  0  0
    7.8760   38.7480    8.5520 C   0  0  0  0  0  0  0  0  0  0  0  0
    8.1440   37.3740    8.7730 C   0  0  0  0  0  0  0  0  0  0  0  0
   11.4840   38.4300   10.5000 C   0  0  0  0  0  0  0  0  0  0  0  0
   12.0850   37.1550   10.5370 C   0  0  0  0  0  0  0  0  0  0  0  0
   13.4500   37.0150   10.2350 C   0  0  0  0  0  0  0  0  0  0  0  0
   14.2080   38.1490    9.8940 C   0  0  0  0  0  0  0  0  0  0  0  0
   15.5230   38.0210    9.5970 F   0  0  0  0  0  0  0  0  0  0  0  0
   13.6010   39.4200    9.8620 C   0  0  0  0  0  0  0  0  0  0  0  0
   12.2290   39.5930   10.1690 C   0  0  0  0  0  0  0  0  0  0  0  0
   13.6523   42.6060   16.0125 H   0  0  0  0  0  0  0  0  0  0  0  0
   12.7559   41.5904   14.8328 H   0  0  0  0  0  0  0  0  0  0  0  0
   14.5522   41.5935   14.8328 H   0  0  0  0  0  0  0  0  0  0  0  0
   12.7367   43.9661   14.1214 H   0  0  0  0  0  0  0  0  0  0  0  0
   14.5304   44.0065   14.1627 H   0  0  0  0  0  0  0  0  0  0  0  0
   11.0147   42.9233   13.1959 H   0  0  0  0  0  0  0  0  0  0  0  0
   10.1329   43.8439   11.9304 H   0  0  0  0  0  0  0  0  0  0  0  0
   10.0878   42.0482   11.9304 H   0  0  0  0  0  0  0  0  0  0  0  0
   11.0566   42.6580    9.3802 H   0  0  0  0  0  0  0  0  0  0  0  0
   12.7882   42.1364    9.5569 H   0  0  0  0  0  0  0  0  0  0  0  0
    9.4314   37.3331   11.9691 H   0  0  0  0  0  0  0  0  0  0  0  0
    8.2126   38.5177   11.2696 H   0  0  0  0  0  0  0  0  0  0  0  0
    9.4435   35.1585   11.0655 H   0  0  0  0  0  0  0  0  0  0  0  0
    8.8376   33.5395    9.2641 H   0  0  0  0  0  0  0  0  0  0  0  0
    7.7922   34.3544    7.1403 H   0  0  0  0  0  0  0  0  0  0  0  0
    6.9572   36.1558    5.7669 H   0  0  0  0  0  0  0  0  0  0  0  0
    6.4942   38.5932    5.4092 H   0  0  0  0  0  0  0  0  0  0  0  0
    7.0831   40.2518    7.1938 H   0  0  0  0  0  0  0  0  0  0  0  0
    8.1320   39.4837    9.3287 H   0  0  0  0  0  0  0  0  0  0  0  0
   11.4860   36.2712   10.8019 H   0  0  0  0  0  0  0  0  0  0  0  0
   13.9235   36.0226   10.2652 H   0  0  0  0  0  0  0  0  0  0  0  0
   14.2063   40.2980    9.5925 H   0  0  0  0  0  0  0  0  0  0  0  0
  1  2  1  0
  2  3  1  0
  3  4  1  0
  4  5  2  0
  4  6  1  0
  6  7  1  0
  6  8  1  0
  8  9  1  0
  9 10  2  0
 10 11  1  0
 11 12  2  0
 11 13  1  0
 10 14  1  0
 14 15  1  0
 15 16  1  0
 16 17  2  0
 17 18  1  0
 18 19  2  0
 19 20  1  0
 20 21  2  0
 21 22  1  0
 22 23  2  0
 23 24  1  0
 24 25  2  0
 14 26  1  0
 26 27  2  0
 27 28  1  0
 28 29  2  0
 29 30  1  0
 29 31  1  0
 31 32  2  0
 32  9  1  0
 25 16  1  0
 32 26  1  0
 25 20  1  0
  1 33  1  0
  1 34  1  0
  1 35  1  0
  2 36  1  0
  2 37  1  0
  7 38  1  0
  7 39  1  0
  7 40  1  0
  8 41  1  0
  8 42  1  0
 15 43  1  0
 15 44  1  0
 17 45  1  0
 18 46  1  0
 19 47  1  0
 21 48  1  0
 22 49  1  0
 23 50  1  0
 24 51  1  0
 27 52  1  0
 28 53  1  0
 31 54  1  0
M  CHG  1  13  -1
M  END
>  <meeko>  (12) 
{"free_energy": -6.89, "intermolecular_energy": -9.28, "internal_energy": -1.81, "cluster_size": 96, "cluster_id": 3, "rank_in_cluster": 16}

$$$$

     RDKit          3D

 54 57  0  0  0  0  0  0  0  0999 V2000
   14.0180   42.5320    7.4730 C   0  0  0  0  0  0  0  0  0  0  0  0
   13.4600   41.1080    7.4050 C   0  0  0  0  0  0  0  0  0  0  0  0
   13.3230   40.5970    8.7210 O   0  0  0  0  0  0  0  0  0  0  0  0
   13.7710   39.3580    9.0160 C   0  0  0  0  0  0  0  0  0  0  0  0
   14.9040   38.9630    8.7380 O   0  0  0  0  0  0  0  0  0  0  0  0
   12.7770   38.6200    9.6710 N   0  0  0  0  0  0  0  0  0  0  0  0
   13.0980   37.5850   10.6600 C   0  0  0  0  0  0  0  0  0  0  0  0
   11.3530   38.8290    9.3760 C   0  0  0  0  0  0  0  0  0  0  0  0
   10.4540   38.1550   10.3860 C   0  0  0  0  0  0  0  0  0  0  0  0
   10.3520   38.3880   11.7470 C   0  0  0  0  0  0  0  0  0  0  0  0
   11.0680   39.3870   12.6000 C   0  0  0  0  0  0  0  0  0  0  0  0
   12.0030   38.9940   13.3290 O   0  0  0  0  0  0  0  0  0  0  0  0
   10.7240   40.5900   12.5960 O   0  0  0  0  0  1  0  0  0  0  0  0
    9.4260   37.4760   12.2960 N   0  0  0  0  0  0  0  0  0  0  0  0
    8.9880   37.3510   13.6890 C   0  0  0  0  0  0  0  0  0  0  0  0
    9.3860   36.0370   14.3750 C   0  0  0  0  0  0  0  0  0  0  0  0
   10.2320   35.1050   13.7230 C   0  0  0  0  0  0  0  0  0  0  0  0
   10.6000   33.9010   14.3470 C   0  0  0  0  0  0  0  0  0  0  0  0
   10.1270   33.6050   15.6360 C   0  0  0  0  0  0  0  0  0  0  0  0
    9.2840   34.5140   16.3030 C   0  0  0  0  0  0  0  0  0  0  0  0
    8.8180   34.2000   17.5970 C   0  0  0  0  0  0  0  0  0  0  0  0
    7.9740   35.0930   18.2820 C   0  0  0  0  0  0  0  0  0  0  0  0
    7.5960   36.3030   17.6750 C   0  0  0  0  0  0  0  0  0  0  0  0
    8.0570   36.6220   16.3830 C   0  0  0  0  0  0  0  0  0  0  0  0
    8.9080   35.7350   15.6790 C   0  0  0  0  0  0  0  0  0  0  0  0
    8.9350   36.6580   11.2860 C   0  0  0  0  0  0  0  0  0  0  0  0
    8.0120   35.5920   11.3050 C   0  0  0  0  0  0  0  0  0  0  0  0
    7.6820   34.9300   10.1110 C   0  0  0  0  0  0  0  0  0  0  0  0
    8.2740   35.3360    8.9020 C   0  0  0  0  0  0  0  0  0  0  0  0
    7.9570   34.7040    7.7470 F   0  0  0  0  0  0  0  0  0  0  0  0
    9.1980   36.3990    8.8920 C   0  0  0  0  0  0  0  0  0  0  0  0
    9.5560   37.0810   10.0800 C   0  0  0  0  0  0  0  0  0  0  0  0
   14.1348   42.8302    8.5254 H   0  0  0  0  0  0  0  0  0  0  0  0
   14.9963   42.5668    6.9713 H   0  0  0  0  0  0  0  0  0  0  0  0
   13.3238   43.2222    6.9713 H   0  0  0  0  0  0  0  0  0  0  0  0
   12.4771   41.1213    6.9114 H   0  0  0  0  0  0  0  0  0  0  0  0
   14.1468   40.4692    6.8303 H   0  0  0  0  0  0  0  0  0  0  0  0
   12.9711   37.9941   11.6732 H   0  0  0  0  0  0  0  0  0  0  0  0
   12.4239   36.7264   10.5242 H   0  0  0  0  0  0  0  0  0  0  0  0
   14.1396   37.2585   10.5242 H   0  0  0  0  0  0  0  0  0  0  0  0
   11.1451   39.9092    9.3824 H   0  0  0  0  0  0  0  0  0  0  0  0
   11.1445   38.3860    8.3910 H   0  0  0  0  0  0  0  0  0  0  0  0
    9.4265   38.1819   14.2612 H   0  0  0  0  0  0  0  0  0  0  0  0
    7.8883   37.3688   13.6699 H   0  0  0  0  0  0  0  0  0  0  0  0
   10.6062   35.3278   12.7129 H   0  0  0  0  0  0  0  0  0  0  0  0
   11.2585   33.1903   13.8261 H   0  0  0  0  0  0  0  0  0  0  0  0
   10.4154   32.6625   16.1245 H   0  0  0  0  0  0  0  0  0  0  0  0
    9.1156   33.2536   18.0720 H   0  0  0  0  0  0  0  0  0  0  0  0
    7.6108   34.8449   19.2902 H   0  0  0  0  0  0  0  0  0  0  0  0
    6.9380   37.0031   18.2107 H   0  0  0  0  0  0  0  0  0  0  0  0
    7.7529   37.5702   15.9155 H   0  0  0  0  0  0  0  0  0  0  0  0
    7.5511   35.2794   12.2536 H   0  0  0  0  0  0  0  0  0  0  0  0
    6.9633   34.0973   10.1217 H   0  0  0  0  0  0  0  0  0  0  0  0
    9.6523   36.7066    7.9386 H   0  0  0  0  0  0  0  0  0  0  0  0
  1  2  1  0
  2  3  1  0
  3  4  1  0
  4  5  2  0
  4  6  1  0
  6  7  1  0
  6  8  1  0
  8  9  1  0
  9 10  2  0
 10 11  1  0
 11 12  2  0
 11 13  1  0
 10 14  1  0
 14 15  1  0
 15 16  1  0
 16 17  2  0
 17 18  1  0
 18 19  2  0
 19 20  1  0
 20 21  2  0
 21 22  1  0
 22 23  2  0
 23 24  1  0
 24 25  2  0
 14 26  1  0
 26 27  2  0
 27 28  1  0
 28 29  2  0
 29 30  1  0
 29 31  1  0
 31 32  2  0
 32  9  1  0
 25 16  1  0
 32 26  1  0
 25 20  1  0
  1 33  1  0
  1 34  1  0
  1 35  1  0
  2 36  1  0
  2 37  1  0
  7 38  1  0
  7 39  1  0
  7 40  1  0
  8 41  1  0
  8 42  1  0
 15 43  1  0
 15 44  1  0
 17 45  1  0
 18 46  1  0
 19 47  1  0
 21 48  1  0
 22 49  1  0
 23 50  1  0
 24 51  1  0
 27 52  1  0
 28 53  1  0
 31 54  1  0
M  CHG  1  13  -1
M  END
>  <meeko>  (13) 
{"free_energy": -6.47, "intermolecular_energy": -8.85, "internal_energy": -1.51, "cluster_size": 253, "cluster_id": 8, "rank_in_cluster": 60}

$$$$

     RDKit          3D

 54 57  0  0  0  0  0  0  0  0999 V2000
    7.5100   35.8010   16.2670 C   0  0  0  0  0  0  0  0  0  0  0  0
    8.5860   35.1020   15.4320 C   0  0  0  0  0  0  0  0  0  0  0  0
    8.5140   35.5670   14.0940 O   0  0  0  0  0  0  0  0  0  0  0  0
    9.6450   35.7510   13.3800 C   0  0  0  0  0  0  0  0  0  0  0  0
   10.5610   34.9280   13.3380 O   0  0  0  0  0  0  0  0  0  0  0  0
    9.6100   36.9820   12.7120 N   0  0  0  0  0  0  0  0  0  0  0  0
    9.6330   38.2610   13.4300 C   0  0  0  0  0  0  0  0  0  0  0  0
    9.5180   37.0510   11.2470 C   0  0  0  0  0  0  0  0  0  0  0  0
   10.3410   38.1820   10.6750 C   0  0  0  0  0  0  0  0  0  0  0  0
    9.9220   39.4320   10.2550 C   0  0  0  0  0  0  0  0  0  0  0  0
    8.5530   40.0360   10.2770 C   0  0  0  0  0  0  0  0  0  0  0  0
    7.7830   39.8130    9.3180 O   0  0  0  0  0  0  0  0  0  0  0  0
    8.1950   40.7660   11.2270 O   0  0  0  0  0  1  0  0  0  0  0  0
   11.0310   40.1310    9.7340 N   0  0  0  0  0  0  0  0  0  0  0  0
   11.0740   41.4890    9.1830 C   0  0  0  0  0  0  0  0  0  0  0  0
   12.0280   42.4480    9.9070 C   0  0  0  0  0  0  0  0  0  0  0  0
   13.0650   43.1100    9.2020 C   0  0  0  0  0  0  0  0  0  0  0  0
   13.9410   43.9900    9.8610 C   0  0  0  0  0  0  0  0  0  0  0  0
   13.7980   44.2230   11.2380 C   0  0  0  0  0  0  0  0  0  0  0  0
   12.7770   43.5760   11.9610 C   0  0  0  0  0  0  0  0  0  0  0  0
   12.6490   43.8220   13.3430 C   0  0  0  0  0  0  0  0  0  0  0  0
   11.6370   43.1860   14.0850 C   0  0  0  0  0  0  0  0  0  0  0  0
   10.7490   42.3040   13.4440 C   0  0  0  0  0  0  0  0  0  0  0  0
   10.8730   42.0540   12.0640 C   0  0  0  0  0  0  0  0  0  0  0  0
   11.8870   42.6850   11.3010 C   0  0  0  0  0  0  0  0  0  0  0  0
   12.1600   39.3280    9.8200 C   0  0  0  0  0  0  0  0  0  0  0  0
   13.4990   39.5430    9.4310 C   0  0  0  0  0  0  0  0  0  0  0  0
   14.4610   38.5420    9.6470 C   0  0  0  0  0  0  0  0  0  0  0  0
   14.0820   37.3310   10.2520 C   0  0  0  0  0  0  0  0  0  0  0  0
   15.0060   36.3640   10.4670 F   0  0  0  0  0  0  0  0  0  0  0  0
   12.7430   37.1220   10.6340 C   0  0  0  0  0  0  0  0  0  0  0  0
   11.7500   38.1090   10.4230 C   0  0  0  0  0  0  0  0  0  0  0  0
    7.7266   35.6603   17.3362 H   0  0  0  0  0  0  0  0  0  0  0  0
    7.5044   36.8757   16.0324 H   0  0  0  0  0  0  0  0  0  0  0  0
    6.5258   35.3693   16.0324 H   0  0  0  0  0  0  0  0  0  0  0  0
    9.5790   35.3289   15.8473 H   0  0  0  0  0  0  0  0  0  0  0  0
    8.4223   34.0145   15.4544 H   0  0  0  0  0  0  0  0  0  0  0  0
    9.6296   38.0732   14.5138 H   0  0  0  0  0  0  0  0  0  0  0  0
   10.5413   38.8183   13.1573 H   0  0  0  0  0  0  0  0  0  0  0  0
    8.7453   38.8506   13.1573 H   0  0  0  0  0  0  0  0  0  0  0  0
    9.8789   36.1017   10.8245 H   0  0  0  0  0  0  0  0  0  0  0  0
    8.4657   37.2328   10.9834 H   0  0  0  0  0  0  0  0  0  0  0  0
   11.3897   41.4216    8.1314 H   0  0  0  0  0  0  0  0  0  0  0  0
   10.0635   41.9054    9.3074 H   0  0  0  0  0  0  0  0  0  0  0  0
   13.1858   42.9323    8.1232 H   0  0  0  0  0  0  0  0  0  0  0  0
   14.7387   44.4962    9.2976 H   0  0  0  0  0  0  0  0  0  0  0  0
   14.4841   44.9116   11.7528 H   0  0  0  0  0  0  0  0  0  0  0  0
   13.3428   44.5137   13.8431 H   0  0  0  0  0  0  0  0  0  0  0  0
   11.5406   43.3782   15.1638 H   0  0  0  0  0  0  0  0  0  0  0  0
    9.9554   41.8081   14.0222 H   0  0  0  0  0  0  0  0  0  0  0  0
   10.1747   41.3608   11.5723 H   0  0  0  0  0  0  0  0  0  0  0  0
   13.7895   40.4932    8.9591 H   0  0  0  0  0  0  0  0  0  0  0  0
   15.5058   38.7051    9.3441 H   0  0  0  0  0  0  0  0  0  0  0  0
   12.4618   36.1697   11.1074 H   0  0  0  0  0  0  0  0  0  0  0  0
  1  2  1  0
  2  3  1  0
  3  4  1  0
  4  5  2  0
  4  6  1  0
  6  7  1  0
  6  8  1  0
  8  9  1  0
  9 10  2  0
 10 11  1  0
 11 12  2  0
 11 13  1  0
 10 14  1  0
 14 15  1  0
 15 16  1  0
 16 17  2  0
 17 18  1  0
 18 19  2  0
 19 20  1  0
 20 21  2  0
 21 22  1  0
 22 23  2  0
 23 24  1  0
 24 25  2  0
 14 26  1  0
 26 27  2  0
 27 28  1  0
 28 29  2  0
 29 30  1  0
 29 31  1  0
 31 32  2  0
 32  9  1  0
 25 16  1  0
 32 26  1  0
 25 20  1  0
  1 33  1  0
  1 34  1  0
  1 35  1  0
  2 36  1  0
  2 37  1  0
  7 38  1  0
  7 39  1  0
  7 40  1  0
  8 41  1  0
  8 42  1  0
 15 43  1  0
 15 44  1  0
 17 45  1  0
 18 46  1  0
 19 47  1  0
 21 48  1  0
 22 49  1  0
 23 50  1  0
 24 51  1  0
 27 52  1  0
 28 53  1  0
 31 54  1  0
M  CHG  1  13  -1
M  END
>  <meeko>  (14) 
{"free_energy": -4.48, "intermolecular_energy": -6.87, "internal_energy": -2.1, "cluster_size": 6, "cluster_id": 150, "rank_in_cluster": 5}

$$$$

     RDKit          3D

 54 57  0  0  0  0  0  0  0  0999 V2000
    2.0340   36.4500   21.2560 C   0  0  0  0  0  0  0  0  0  0  0  0
    2.8660   37.6590   20.8220 C   0  0  0  0  0  0  0  0  0  0  0  0
    4.1480   37.2190   20.4070 O   0  0  0  0  0  0  0  0  0  0  0  0
    4.7240   37.7530   19.3080 C   0  0  0  0  0  0  0  0  0  0  0  0
    4.5340   38.9130   18.9400 O   0  0  0  0  0  0  0  0  0  0  0  0
    5.5480   36.8120   18.6780 N   0  0  0  0  0  0  0  0  0  0  0  0
    5.8920   35.5310   19.3060 C   0  0  0  0  0  0  0  0  0  0  0  0
    6.1360   37.0760   17.3580 C   0  0  0  0  0  0  0  0  0  0  0  0
    7.6340   36.8810   17.3500 C   0  0  0  0  0  0  0  0  0  0  0  0
    8.6220   37.7340   17.8100 C   0  0  0  0  0  0  0  0  0  0  0  0
    8.4960   39.0690   18.4740 C   0  0  0  0  0  0  0  0  0  0  0  0
    9.5210   39.7710   18.6090 O   0  0  0  0  0  0  0  0  0  0  0  0
    7.3900   39.4660   18.9020 O   0  0  0  0  0  1  0  0  0  0  0  0
    9.8820   37.1600   17.5360 N   0  0  0  0  0  0  0  0  0  0  0  0
   11.2120   37.6920   17.8470 C   0  0  0  0  0  0  0  0  0  0  0  0
   11.7650   37.2840   19.2190 C   0  0  0  0  0  0  0  0  0  0  0  0
   11.0120   37.5050   20.4000 C   0  0  0  0  0  0  0  0  0  0  0  0
   11.5140   37.1330   21.6590 C   0  0  0  0  0  0  0  0  0  0  0  0
   12.7800   36.5350   21.7610 C   0  0  0  0  0  0  0  0  0  0  0  0
   13.5480   36.3070   20.6030 C   0  0  0  0  0  0  0  0  0  0  0  0
   14.8180   35.7060   20.7250 C   0  0  0  0  0  0  0  0  0  0  0  0
   15.6030   35.4690   19.5820 C   0  0  0  0  0  0  0  0  0  0  0  0
   15.1170   35.8330   18.3130 C   0  0  0  0  0  0  0  0  0  0  0  0
   13.8510   36.4340   18.1850 C   0  0  0  0  0  0  0  0  0  0  0  0
   13.0470   36.6800   19.3260 C   0  0  0  0  0  0  0  0  0  0  0  0
    9.7000   35.9390   16.9000 C   0  0  0  0  0  0  0  0  0  0  0  0
   10.6190   34.9880   16.4100 C   0  0  0  0  0  0  0  0  0  0  0  0
   10.1530   33.8090   15.8050 C   0  0  0  0  0  0  0  0  0  0  0  0
    8.7700   33.5830   15.6950 C   0  0  0  0  0  0  0  0  0  0  0  0
    8.3140   32.4470   15.1170 F   0  0  0  0  0  0  0  0  0  0  0  0
    7.8580   34.5390   16.1840 C   0  0  0  0  0  0  0  0  0  0  0  0
    8.2980   35.7390   16.7920 C   0  0  0  0  0  0  0  0  0  0  0  0
    2.0014   36.4026   22.3545 H   0  0  0  0  0  0  0  0  0  0  0  0
    1.0114   36.5484   20.8627 H   0  0  0  0  0  0  0  0  0  0  0  0
    2.4912   35.5300   20.8627 H   0  0  0  0  0  0  0  0  0  0  0  0
    2.3644   38.1699   19.9869 H   0  0  0  0  0  0  0  0  0  0  0  0
    2.9705   38.3572   21.6656 H   0  0  0  0  0  0  0  0  0  0  0  0
    5.8628   35.6396   20.4002 H   0  0  0  0  0  0  0  0  0  0  0  0
    5.1681   34.7637   18.9942 H   0  0  0  0  0  0  0  0  0  0  0  0
    6.9029   35.2296   18.9942 H   0  0  0  0  0  0  0  0  0  0  0  0
    5.6857   36.3893   16.6261 H   0  0  0  0  0  0  0  0  0  0  0  0
    5.9313   38.1259   17.1015 H   0  0  0  0  0  0  0  0  0  0  0  0
   11.9116   37.3356   17.0766 H   0  0  0  0  0  0  0  0  0  0  0  0
   11.1097   38.7870   17.8682 H   0  0  0  0  0  0  0  0  0  0  0  0
   10.0198   37.9748   20.3298 H   0  0  0  0  0  0  0  0  0  0  0  0
   10.9149   37.3104   22.5643 H   0  0  0  0  0  0  0  0  0  0  0  0
   13.1725   36.2442   22.7466 H   0  0  0  0  0  0  0  0  0  0  0  0
   15.1962   35.4214   21.7179 H   0  0  0  0  0  0  0  0  0  0  0  0
   16.5935   35.0007   19.6801 H   0  0  0  0  0  0  0  0  0  0  0  0
   15.7286   35.6472   17.4178 H   0  0  0  0  0  0  0  0  0  0  0  0
   13.4812   36.7160   17.1881 H   0  0  0  0  0  0  0  0  0  0  0  0
   11.7001   35.1694   16.5015 H   0  0  0  0  0  0  0  0  0  0  0  0
   10.8668   33.0663   15.4192 H   0  0  0  0  0  0  0  0  0  0  0  0
    6.7786   34.3483   16.0911 H   0  0  0  0  0  0  0  0  0  0  0  0
  1  2  1  0
  2  3  1  0
  3  4  1  0
  4  5  2  0
  4  6  1  0
  6  7  1  0
  6  8  1  0
  8  9  1  0
  9 10  2  0
 10 11  1  0
 11 12  2  0
 11 13  1  0
 10 14  1  0
 14 15  1  0
 15 16  1  0
 16 17  2  0
 17 18  1  0
 18 19  2  0
 19 20  1  0
 20 21  2  0
 21 22  1  0
 22 23  2  0
 23 24  1  0
 24 25  2  0
 14 26  1  0
 26 27  2  0
 27 28  1  0
 28 29  2  0
 29 30  1  0
 29 31  1  0
 31 32  2  0
 32  9  1  0
 25 16  1  0
 32 26  1  0
 25 20  1  0
  1 33  1  0
  1 34  1  0
  1 35  1  0
  2 36  1  0
  2 37  1  0
  7 38  1  0
  7 39  1  0
  7 40  1  0
  8 41  1  0
  8 42  1  0
 15 43  1  0
 15 44  1  0
 17 45  1  0
 18 46  1  0
 19 47  1  0
 21 48  1  0
 22 49  1  0
 23 50  1  0
 24 51  1  0
 27 52  1  0
 28 53  1  0
 31 54  1  0
M  CHG  1  13  -1
M  END
>  <meeko>  (15) 
{"free_energy": -6.16, "intermolecular_energy": -8.55, "internal_energy": -1.67, "cluster_size": 47, "cluster_id": 16, "rank_in_cluster": 10}

$$$$

     RDKit          3D

 54 57  0  0  0  0  0  0  0  0999 V2000
    8.7440   41.5090   19.0420 C   0  0  0  0  0  0  0  0  0  0  0  0
    8.1200   40.2410   19.6290 C   0  0  0  0  0  0  0  0  0  0  0  0
    8.1230   39.2200   18.6450 O   0  0  0  0  0  0  0  0  0  0  0  0
    8.5820   37.9870   18.9500 C   0  0  0  0  0  0  0  0  0  0  0  0
    8.3840   37.4400   20.0360 O   0  0  0  0  0  0  0  0  0  0  0  0
    9.2890   37.4440   17.8690 N   0  0  0  0  0  0  0  0  0  0  0  0
   10.7510   37.3210   17.8760 C   0  0  0  0  0  0  0  0  0  0  0  0
    8.5960   36.9940   16.6550 C   0  0  0  0  0  0  0  0  0  0  0  0
    9.2290   37.5440   15.3980 C   0  0  0  0  0  0  0  0  0  0  0  0
    9.5370   36.8820   14.2220 C   0  0  0  0  0  0  0  0  0  0  0  0
    9.3030   35.4540   13.8410 C   0  0  0  0  0  0  0  0  0  0  0  0
    8.1270   35.0370   13.7690 O   0  0  0  0  0  0  0  0  0  0  0  0
   10.2660   34.6890   13.6190 O   0  0  0  0  0  1  0  0  0  0  0  0
   10.1770   37.7860   13.3470 N   0  0  0  0  0  0  0  0  0  0  0  0
   10.6730   37.5410   11.9890 C   0  0  0  0  0  0  0  0  0  0  0  0
    9.7790   38.0870   10.8680 C   0  0  0  0  0  0  0  0  0  0  0  0
    9.7150   39.4780   10.6030 C   0  0  0  0  0  0  0  0  0  0  0  0
    8.8970   39.9820    9.5760 C   0  0  0  0  0  0  0  0  0  0  0  0
    8.1260   39.1050    8.7970 C   0  0  0  0  0  0  0  0  0  0  0  0
    8.1710   37.7190    9.0430 C   0  0  0  0  0  0  0  0  0  0  0  0
    7.3900   36.8520    8.2510 C   0  0  0  0  0  0  0  0  0  0  0  0
    7.4190   35.4650    8.4780 C   0  0  0  0  0  0  0  0  0  0  0  0
    8.2310   34.9410    9.4990 C   0  0  0  0  0  0  0  0  0  0  0  0
    9.0130   35.8010   10.2940 C   0  0  0  0  0  0  0  0  0  0  0  0
    8.9960   37.2010   10.0780 C   0  0  0  0  0  0  0  0  0  0  0  0
   10.2790   39.0260   13.9640 C   0  0  0  0  0  0  0  0  0  0  0  0
   10.8390   40.2460   13.5330 C   0  0  0  0  0  0  0  0  0  0  0  0
   10.7980   41.3710   14.3730 C   0  0  0  0  0  0  0  0  0  0  0  0
   10.1970   41.2730   15.6400 C   0  0  0  0  0  0  0  0  0  0  0  0
   10.1500   42.3550   16.4530 F   0  0  0  0  0  0  0  0  0  0  0  0
    9.6430   40.0500   16.0640 C   0  0  0  0  0  0  0  0  0  0  0  0
    9.6750   38.8970   15.2430 C   0  0  0  0  0  0  0  0  0  0  0  0
    9.0692   42.1698   19.8591 H   0  0  0  0  0  0  0  0  0  0  0  0
    9.6115   41.2378   18.4225 H   0  0  0  0  0  0  0  0  0  0  0  0
    7.9998   42.0309   18.4225 H   0  0  0  0  0  0  0  0  0  0  0  0
    8.7049   39.9130   20.5009 H   0  0  0  0  0  0  0  0  0  0  0  0
    7.0861   40.4491   19.9417 H   0  0  0  0  0  0  0  0  0  0  0  0
   11.1114   37.2907   18.9148 H   0  0  0  0  0  0  0  0  0  0  0  0
   11.0435   36.3951   17.3592 H   0  0  0  0  0  0  0  0  0  0  0  0
   11.1941   38.1850   17.3592 H   0  0  0  0  0  0  0  0  0  0  0  0
    8.6279   35.8952   16.6159 H   0  0  0  0  0  0  0  0  0  0  0  0
    7.5610   37.3637   16.7009 H   0  0  0  0  0  0  0  0  0  0  0  0
   11.6631   38.0113   11.8965 H   0  0  0  0  0  0  0  0  0  0  0  0
   10.6970   36.4487   11.8610 H   0  0  0  0  0  0  0  0  0  0  0  0
   10.3139   40.1734   11.2095 H   0  0  0  0  0  0  0  0  0  0  0  0
    8.8613   41.0644    9.3830 H   0  0  0  0  0  0  0  0  0  0  0  0
    7.4864   39.5004    7.9941 H   0  0  0  0  0  0  0  0  0  0  0  0
    6.7553   37.2629    7.4521 H   0  0  0  0  0  0  0  0  0  0  0  0
    6.8082   34.7917    7.8586 H   0  0  0  0  0  0  0  0  0  0  0  0
    8.2556   33.8559    9.6775 H   0  0  0  0  0  0  0  0  0  0  0  0
    9.6439   35.3812   11.0913 H   0  0  0  0  0  0  0  0  0  0  0  0
   11.3074   40.3167   12.5402 H   0  0  0  0  0  0  0  0  0  0  0  0
   11.2343   42.3246   14.0408 H   0  0  0  0  0  0  0  0  0  0  0  0
    9.1740   39.9889   17.0571 H   0  0  0  0  0  0  0  0  0  0  0  0
  1  2  1  0
  2  3  1  0
  3  4  1  0
  4  5  2  0
  4  6  1  0
  6  7  1  0
  6  8  1  0
  8  9  1  0
  9 10  2  0
 10 11  1  0
 11 12  2  0
 11 13  1  0
 10 14  1  0
 14 15  1  0
 15 16  1  0
 16 17  2  0
 17 18  1  0
 18 19  2  0
 19 20  1  0
 20 21  2  0
 21 22  1  0
 22 23  2  0
 23 24  1  0
 24 25  2  0
 14 26  1  0
 26 27  2  0
 27 28  1  0
 28 29  2  0
 29 30  1  0
 29 31  1  0
 31 32  2  0
 32  9  1  0
 25 16  1  0
 32 26  1  0
 25 20  1  0
  1 33  1  0
  1 34  1  0
  1 35  1  0
  2 36  1  0
  2 37  1  0
  7 38  1  0
  7 39  1  0
  7 40  1  0
  8 41  1  0
  8 42  1  0
 15 43  1  0
 15 44  1  0
 17 45  1  0
 18 46  1  0
 19 47  1  0
 21 48  1  0
 22 49  1  0
 23 50  1  0
 24 51  1  0
 27 52  1  0
 28 53  1  0
 31 54  1  0
M  CHG  1  13  -1
M  END
>  <meeko>  (16) 
{"free_energy": -6.64, "intermolecular_energy": -9.03, "internal_energy": -2.0, "cluster_size": 163, "cluster_id": 4, "rank_in_cluster": 54}

$$$$

     RDKit          3D

 54 57  0  0  0  0  0  0  0  0999 V2000
   12.2890   40.5920    9.2120 C   0  0  0  0  0  0  0  0  0  0  0  0
   11.9560   39.2580    9.8850 C   0  0  0  0  0  0  0  0  0  0  0  0
   10.9490   38.5960    9.1380 O   0  0  0  0  0  0  0  0  0  0  0  0
    9.7640   38.2990    9.7130 C   0  0  0  0  0  0  0  0  0  0  0  0
    8.7250   38.9200    9.4840 O   0  0  0  0  0  0  0  0  0  0  0  0
    9.8980   37.2060   10.5790 N   0  0  0  0  0  0  0  0  0  0  0  0
   11.0290   36.2750   10.4900 C   0  0  0  0  0  0  0  0  0  0  0  0
    8.8900   36.9200   11.6070 C   0  0  0  0  0  0  0  0  0  0  0  0
    9.4460   37.0460   13.0060 C   0  0  0  0  0  0  0  0  0  0  0  0
   10.1330   38.1050   13.5730 C   0  0  0  0  0  0  0  0  0  0  0  0
   10.4900   39.4350   12.9860 C   0  0  0  0  0  0  0  0  0  0  0  0
   11.6840   39.8020   13.0140 O   0  0  0  0  0  0  0  0  0  0  0  0
    9.6070   40.1720   12.4960 O   0  0  0  0  0  1  0  0  0  0  0  0
   10.5140   37.7490   14.8840 N   0  0  0  0  0  0  0  0  0  0  0  0
   11.2480   38.5500   15.8680 C   0  0  0  0  0  0  0  0  0  0  0  0
   10.6970   38.4780   17.2990 C   0  0  0  0  0  0  0  0  0  0  0  0
    9.4350   39.0380   17.6200 C   0  0  0  0  0  0  0  0  0  0  0  0
    8.9260   38.9740   18.9280 C   0  0  0  0  0  0  0  0  0  0  0  0
    9.6710   38.3500   19.9420 C   0  0  0  0  0  0  0  0  0  0  0  0
   10.9280   37.7880   19.6480 C   0  0  0  0  0  0  0  0  0  0  0  0
   11.6630   37.1650   20.6790 C   0  0  0  0  0  0  0  0  0  0  0  0
   12.9210   36.5970   20.4090 C   0  0  0  0  0  0  0  0  0  0  0  0
   13.4470   36.6500   19.1060 C   0  0  0  0  0  0  0  0  0  0  0  0
   12.7180   37.2710   18.0730 C   0  0  0  0  0  0  0  0  0  0  0  0
   11.4490   37.8480   18.3270 C   0  0  0  0  0  0  0  0  0  0  0  0
   10.0720   36.4610   15.1560 C   0  0  0  0  0  0  0  0  0  0  0  0
   10.2030   35.6440   16.2980 C   0  0  0  0  0  0  0  0  0  0  0  0
    9.6390   34.3570   16.3060 C   0  0  0  0  0  0  0  0  0  0  0  0
    8.9460   33.8920   15.1750 C   0  0  0  0  0  0  0  0  0  0  0  0
    8.3970   32.6540   15.1790 F   0  0  0  0  0  0  0  0  0  0  0  0
    8.8230   34.7130   14.0380 C   0  0  0  0  0  0  0  0  0  0  0  0
    9.3860   36.0120   13.9960 C   0  0  0  0  0  0  0  0  0  0  0  0
   12.4792   41.3539    9.9823 H   0  0  0  0  0  0  0  0  0  0  0  0
   13.1850   40.4728    8.5851 H   0  0  0  0  0  0  0  0  0  0  0  0
   11.4421   40.9079    8.5851 H   0  0  0  0  0  0  0  0  0  0  0  0
   12.8583   38.6300    9.9230 H   0  0  0  0  0  0  0  0  0  0  0  0
   11.5963   39.4407   10.9083 H   0  0  0  0  0  0  0  0  0  0  0  0
   11.3601   36.0024   11.5029 H   0  0  0  0  0  0  0  0  0  0  0  0
   10.7165   35.3690    9.9502 H   0  0  0  0  0  0  0  0  0  0  0  0
   11.8581   36.7558    9.9502 H   0  0  0  0  0  0  0  0  0  0  0  0
    8.0568   37.6289   11.4923 H   0  0  0  0  0  0  0  0  0  0  0  0
    8.5553   35.8811   11.4702 H   0  0  0  0  0  0  0  0  0  0  0  0
   12.2905   38.1994   15.8850 H   0  0  0  0  0  0  0  0  0  0  0  0
   11.1468   39.5983   15.5504 H   0  0  0  0  0  0  0  0  0  0  0  0
    8.8450   39.5303   16.8329 H   0  0  0  0  0  0  0  0  0  0  0  0
    7.9438   39.4127   19.1579 H   0  0  0  0  0  0  0  0  0  0  0  0
    9.2724   38.3004   20.9660 H   0  0  0  0  0  0  0  0  0  0  0  0
   11.2504   37.1234   21.6978 H   0  0  0  0  0  0  0  0  0  0  0  0
   13.4919   36.1126   21.2149 H   0  0  0  0  0  0  0  0  0  0  0  0
   14.4303   36.2054   18.8928 H   0  0  0  0  0  0  0  0  0  0  0  0
   13.1387   37.3085   17.0573 H   0  0  0  0  0  0  0  0  0  0  0  0
   10.7456   36.0135   17.1807 H   0  0  0  0  0  0  0  0  0  0  0  0
    9.7395   33.7158   17.1941 H   0  0  0  0  0  0  0  0  0  0  0  0
    8.2763   34.3365   13.1609 H   0  0  0  0  0  0  0  0  0  0  0  0
  1  2  1  0
  2  3  1  0
  3  4  1  0
  4  5  2  0
  4  6  1  0
  6  7  1  0
  6  8  1  0
  8  9  1  0
  9 10  2  0
 10 11  1  0
 11 12  2  0
 11 13  1  0
 10 14  1  0
 14 15  1  0
 15 16  1  0
 16 17  2  0
 17 18  1  0
 18 19  2  0
 19 20  1  0
 20 21  2  0
 21 22  1  0
 22 23  2  0
 23 24  1  0
 24 25  2  0
 14 26  1  0
 26 27  2  0
 27 28  1  0
 28 29  2  0
 29 30  1  0
 29 31  1  0
 31 32  2  0
 32  9  1  0
 25 16  1  0
 32 26  1  0
 25 20  1  0
  1 33  1  0
  1 34  1  0
  1 35  1  0
  2 36  1  0
  2 37  1  0
  7 38  1  0
  7 39  1  0
  7 40  1  0
  8 41  1  0
  8 42  1  0
 15 43  1  0
 15 44  1  0
 17 45  1  0
 18 46  1  0
 19 47  1  0
 21 48  1  0
 22 49  1  0
 23 50  1  0
 24 51  1  0
 27 52  1  0
 28 53  1  0
 31 54  1  0
M  CHG  1  13  -1
M  END
>  <meeko>  (17) 
{"free_energy": -4.83, "intermolecular_energy": -7.21, "internal_energy": -2.01, "cluster_size": 34, "cluster_id": 135, "rank_in_cluster": 15}

$$$$

     RDKit          3D

 54 57  0  0  0  0  0  0  0  0999 V2000
    5.1600   44.0190   12.8620 C   0  0  0  0  0  0  0  0  0  0  0  0
    6.3640   43.9530   13.8060 C   0  0  0  0  0  0  0  0  0  0  0  0
    7.2540   42.9440   13.3570 O   0  0  0  0  0  0  0  0  0  0  0  0
    8.4950   42.8540   13.8810 C   0  0  0  0  0  0  0  0  0  0  0  0
    8.7480   42.2480   14.9230 O   0  0  0  0  0  0  0  0  0  0  0  0
    9.4190   43.5320   13.0750 N   0  0  0  0  0  0  0  0  0  0  0  0
    9.3980   44.9910   12.9220 C   0  0  0  0  0  0  0  0  0  0  0  0
   10.4440   42.8050   12.3150 C   0  0  0  0  0  0  0  0  0  0  0  0
   10.3560   41.3110   12.5190 C   0  0  0  0  0  0  0  0  0  0  0  0
   10.9050   40.5400   13.5280 C   0  0  0  0  0  0  0  0  0  0  0  0
   11.7090   40.9600   14.7190 C   0  0  0  0  0  0  0  0  0  0  0  0
   11.5270   42.1010   15.1940 O   0  0  0  0  0  0  0  0  0  0  0  0
   12.5590   40.1890   15.2160 O   0  0  0  0  0  1  0  0  0  0  0  0
   10.6140   39.1830   13.2730 N   0  0  0  0  0  0  0  0  0  0  0  0
   10.9800   38.0080   14.0690 C   0  0  0  0  0  0  0  0  0  0  0  0
   10.0910   37.7570   15.2940 C   0  0  0  0  0  0  0  0  0  0  0  0
    9.9030   38.7640   16.2740 C   0  0  0  0  0  0  0  0  0  0  0  0
    9.0890   38.5380   17.3980 C   0  0  0  0  0  0  0  0  0  0  0  0
    8.4490   37.2990   17.5640 C   0  0  0  0  0  0  0  0  0  0  0  0
    8.6210   36.2830   16.6050 C   0  0  0  0  0  0  0  0  0  0  0  0
    7.9710   35.0450   16.7890 C   0  0  0  0  0  0  0  0  0  0  0  0
    8.1290   34.0150   15.8450 C   0  0  0  0  0  0  0  0  0  0  0  0
    8.9380   34.2210   14.7130 C   0  0  0  0  0  0  0  0  0  0  0  0
    9.5900   35.4550   14.5250 C   0  0  0  0  0  0  0  0  0  0  0  0
    9.4420   36.5030   15.4660 C   0  0  0  0  0  0  0  0  0  0  0  0
    9.8790   39.0850   12.0990 C   0  0  0  0  0  0  0  0  0  0  0  0
    9.3580   37.9730   11.4060 C   0  0  0  0  0  0  0  0  0  0  0  0
    8.6280   38.1650   10.2210 C   0  0  0  0  0  0  0  0  0  0  0  0
    8.4200   39.4670    9.7340 C   0  0  0  0  0  0  0  0  0  0  0  0
    7.7150   39.6580    8.5940 F   0  0  0  0  0  0  0  0  0  0  0  0
    8.9470   40.5720   10.4290 C   0  0  0  0  0  0  0  0  0  0  0  0
    9.6920   40.4100   11.6230 C   0  0  0  0  0  0  0  0  0  0  0  0
    4.2334   44.0698   13.4526 H   0  0  0  0  0  0  0  0  0  0  0  0
    5.2401   44.9141   12.2277 H   0  0  0  0  0  0  0  0  0  0  0  0
    5.1417   43.1205   12.2277 H   0  0  0  0  0  0  0  0  0  0  0  0
    6.8810   44.9239   13.8112 H   0  0  0  0  0  0  0  0  0  0  0  0
    6.0223   43.7177   14.8248 H   0  0  0  0  0  0  0  0  0  0  0  0
    9.3912   45.4638   13.9152 H   0  0  0  0  0  0  0  0  0  0  0  0
   10.2916   45.3145   12.3680 H   0  0  0  0  0  0  0  0  0  0  0  0
    8.4955   45.2886   12.3680 H   0  0  0  0  0  0  0  0  0  0  0  0
   10.3133   43.0244   11.2451 H   0  0  0  0  0  0  0  0  0  0  0  0
   11.4290   43.1367   12.6753 H   0  0  0  0  0  0  0  0  0  0  0  0
   10.9234   37.1229   13.4183 H   0  0  0  0  0  0  0  0  0  0  0  0
   11.9920   38.1994   14.4554 H   0  0  0  0  0  0  0  0  0  0  0  0
   10.4016   39.7371   16.1532 H   0  0  0  0  0  0  0  0  0  0  0  0
    8.9535   39.3317   18.1474 H   0  0  0  0  0  0  0  0  0  0  0  0
    7.8129   37.1224   18.4439 H   0  0  0  0  0  0  0  0  0  0  0  0
    7.3381   34.8846   17.6743 H   0  0  0  0  0  0  0  0  0  0  0  0
    7.6211   33.0503   15.9914 H   0  0  0  0  0  0  0  0  0  0  0  0
    9.0617   33.4166   13.9730 H   0  0  0  0  0  0  0  0  0  0  0  0
   10.2214   35.6066   13.6371 H   0  0  0  0  0  0  0  0  0  0  0  0
    9.5229   36.9565   11.7927 H   0  0  0  0  0  0  0  0  0  0  0  0
    8.2210   37.3001    9.6767 H   0  0  0  0  0  0  0  0  0  0  0  0
    8.7763   41.5850   10.0357 H   0  0  0  0  0  0  0  0  0  0  0  0
  1  2  1  0
  2  3  1  0
  3  4  1  0
  4  5  2  0
  4  6  1  0
  6  7  1  0
  6  8  1  0
  8  9  1  0
  9 10  2  0
 10 11  1  0
 11 12  2  0
 11 13  1  0
 10 14  1  0
 14 15  1  0
 15 16  1  0
 16 17  2  0
 17 18  1  0
 18 19  2  0
 19 20  1  0
 20 21  2  0
 21 22  1  0
 22 23  2  0
 23 24  1  0
 24 25  2  0
 14 26  1  0
 26 27  2  0
 27 28  1  0
 28 29  2  0
 29 30  1  0
 29 31  1  0
 31 32  2  0
 32  9  1  0
 25 16  1  0
 32 26  1  0
 25 20  1  0
  1 33  1  0
  1 34  1  0
  1 35  1  0
  2 36  1  0
  2 37  1  0
  7 38  1  0
  7 39  1  0
  7 40  1  0
  8 41  1  0
  8 42  1  0
 15 43  1  0
 15 44  1  0
 17 45  1  0
 18 46  1  0
 19 47  1  0
 21 48  1  0
 22 49  1  0
 23 50  1  0
 24 51  1  0
 27 52  1  0
 28 53  1  0
 31 54  1  0
M  CHG  1  13  -1
M  END
>  <meeko>  (18) 
{"free_energy": -5.34, "intermolecular_energy": -7.73, "internal_energy": -1.9, "cluster_size": 121, "cluster_id": 34, "rank_in_cluster": 61}

$$$$

     RDKit          3D

 54 57  0  0  0  0  0  0  0  0999 V2000
   15.3470   34.7650   10.0310 C   0  0  0  0  0  0  0  0  0  0  0  0
   14.9010   36.1680    9.6100 C   0  0  0  0  0  0  0  0  0  0  0  0
   15.3290   37.1060   10.5830 O   0  0  0  0  0  0  0  0  0  0  0  0
   14.4760   38.0520   11.0320 C   0  0  0  0  0  0  0  0  0  0  0  0
   13.5300   37.8090   11.7820 O   0  0  0  0  0  0  0  0  0  0  0  0
   14.8310   39.3110   10.5320 N   0  0  0  0  0  0  0  0  0  0  0  0
   16.1340   39.5640    9.9070 C   0  0  0  0  0  0  0  0  0  0  0  0
   13.9180   40.4570   10.6350 C   0  0  0  0  0  0  0  0  0  0  0  0
   12.6090   40.0870   11.2920 C   0  0  0  0  0  0  0  0  0  0  0  0
   11.6100   39.2510   10.8260 C   0  0  0  0  0  0  0  0  0  0  0  0
   11.5500   38.4480    9.5640 C   0  0  0  0  0  0  0  0  0  0  0  0
   11.1750   37.2580    9.6270 O   0  0  0  0  0  0  0  0  0  0  0  0
   11.8870   38.9540    8.4720 O   0  0  0  0  0  1  0  0  0  0  0  0
   10.5430   39.2570   11.7500 N   0  0  0  0  0  0  0  0  0  0  0  0
    9.2790   38.5180   11.6860 C   0  0  0  0  0  0  0  0  0  0  0  0
    8.6610   38.4170   10.2860 C   0  0  0  0  0  0  0  0  0  0  0  0
    8.5830   39.5540    9.4430 C   0  0  0  0  0  0  0  0  0  0  0  0
    8.0170   39.4670    8.1590 C   0  0  0  0  0  0  0  0  0  0  0  0
    7.5160   38.2400    7.6950 C   0  0  0  0  0  0  0  0  0  0  0  0
    7.5800   37.0970    8.5130 C   0  0  0  0  0  0  0  0  0  0  0  0
    7.0720   35.8730    8.0310 C   0  0  0  0  0  0  0  0  0  0  0  0
    7.1240   34.7190    8.8310 C   0  0  0  0  0  0  0  0  0  0  0  0
    7.6880   34.7850   10.1180 C   0  0  0  0  0  0  0  0  0  0  0  0
    8.1970   36.0040   10.6060 C   0  0  0  0  0  0  0  0  0  0  0  0
    8.1520   37.1770    9.8130 C   0  0  0  0  0  0  0  0  0  0  0  0
   10.8600   40.0990   12.8080 C   0  0  0  0  0  0  0  0  0  0  0  0
   10.1430   40.4610   13.9670 C   0  0  0  0  0  0  0  0  0  0  0  0
   10.7150   41.3450   14.8980 C   0  0  0  0  0  0  0  0  0  0  0  0
   12.0020   41.8600   14.6680 C   0  0  0  0  0  0  0  0  0  0  0  0
   12.5610   42.7090   15.5630 F   0  0  0  0  0  0  0  0  0  0  0  0
   12.7110   41.4960   13.5060 C   0  0  0  0  0  0  0  0  0  0  0  0
   12.1570   40.6140   12.5470 C   0  0  0  0  0  0  0  0  0  0  0  0
   15.3674   34.7008   11.1289 H   0  0  0  0  0  0  0  0  0  0  0  0
   14.6411   34.0211    9.6333 H   0  0  0  0  0  0  0  0  0  0  0  0
   16.3529   34.5653    9.6333 H   0  0  0  0  0  0  0  0  0  0  0  0
   15.3470   36.4189    8.6363 H   0  0  0  0  0  0  0  0  0  0  0  0
   13.8046   36.1972    9.5265 H   0  0  0  0  0  0  0  0  0  0  0  0
   16.8934   39.7114   10.6891 H   0  0  0  0  0  0  0  0  0  0  0  0
   16.4140   38.7034    9.2817 H   0  0  0  0  0  0  0  0  0  0  0  0
   16.0716   40.4668    9.2817 H   0  0  0  0  0  0  0  0  0  0  0  0
   14.4033   41.2440   11.2308 H   0  0  0  0  0  0  0  0  0  0  0  0
   13.6972   40.8053    9.6152 H   0  0  0  0  0  0  0  0  0  0  0  0
    9.4607   37.4974   12.0539 H   0  0  0  0  0  0  0  0  0  0  0  0
    8.5609   39.0806   12.3007 H   0  0  0  0  0  0  0  0  0  0  0  0
    8.9714   40.5196    9.7991 H   0  0  0  0  0  0  0  0  0  0  0  0
    7.9666   40.3596    7.5182 H   0  0  0  0  0  0  0  0  0  0  0  0
    7.0728   38.1723    6.6905 H   0  0  0  0  0  0  0  0  0  0  0  0
    6.6329   35.8214    7.0238 H   0  0  0  0  0  0  0  0  0  0  0  0
    6.7248   33.7667    8.4519 H   0  0  0  0  0  0  0  0  0  0  0  0
    7.7316   33.8821   10.7448 H   0  0  0  0  0  0  0  0  0  0  0  0
    8.6345   36.0458   11.6144 H   0  0  0  0  0  0  0  0  0  0  0  0
    9.1370   40.0519   14.1423 H   0  0  0  0  0  0  0  0  0  0  0  0
   10.1580   41.6322   15.8020 H   0  0  0  0  0  0  0  0  0  0  0  0
   13.7180   41.9065   13.3402 H   0  0  0  0  0  0  0  0  0  0  0  0
  1  2  1  0
  2  3  1  0
  3  4  1  0
  4  5  2  0
  4  6  1  0
  6  7  1  0
  6  8  1  0
  8  9  1  0
  9 10  2  0
 10 11  1  0
 11 12  2  0
 11 13  1  0
 10 14  1  0
 14 15  1  0
 15 16  1  0
 16 17  2  0
 17 18  1  0
 18 19  2  0
 19 20  1  0
 20 21  2  0
 21 22  1  0
 22 23  2  0
 23 24  1  0
 24 25  2  0
 14 26  1  0
 26 27  2  0
 27 28  1  0
 28 29  2  0
 29 30  1  0
 29 31  1  0
 31 32  2  0
 32  9  1  0
 25 16  1  0
 32 26  1  0
 25 20  1  0
  1 33  1  0
  1 34  1  0
  1 35  1  0
  2 36  1  0
  2 37  1  0
  7 38  1  0
  7 39  1  0
  7 40  1  0
  8 41  1  0
  8 42  1  0
 15 43  1  0
 15 44  1  0
 17 45  1  0
 18 46  1  0
 19 47  1  0
 21 48  1  0
 22 49  1  0
 23 50  1  0
 24 51  1  0
 27 52  1  0
 28 53  1  0
 31 54  1  0
M  CHG  1  13  -1
M  END
>  <meeko>  (19) 
{"free_energy": -6.37, "intermolecular_energy": -8.75, "internal_energy": -1.08, "cluster_size": 417, "cluster_id": 2, "rank_in_cluster": 225}

$$$$

     RDKit          3D

 54 57  0  0  0  0  0  0  0  0999 V2000
   17.7830   39.2630   14.5600 C   0  0  0  0  0  0  0  0  0  0  0  0
   17.0650   37.9820   14.1300 C   0  0  0  0  0  0  0  0  0  0  0  0
   17.3940   37.6920   12.7810 O   0  0  0  0  0  0  0  0  0  0  0  0
   17.5560   38.6970   11.8940 C   0  0  0  0  0  0  0  0  0  0  0  0
   18.6510   39.1930   11.6230 O   0  0  0  0  0  0  0  0  0  0  0  0
   16.3230   39.0700   11.3430 N   0  0  0  0  0  0  0  0  0  0  0  0
   16.0760   40.4200   10.8240 C   0  0  0  0  0  0  0  0  0  0  0  0
   15.1980   38.1270   11.2850 C   0  0  0  0  0  0  0  0  0  0  0  0
   13.8730   38.7990   11.5580 C   0  0  0  0  0  0  0  0  0  0  0  0
   12.9440   39.2820   10.6540 C   0  0  0  0  0  0  0  0  0  0  0  0
   12.9620   39.2500    9.1580 C   0  0  0  0  0  0  0  0  0  0  0  0
   11.9510   38.8320    8.5540 O   0  0  0  0  0  0  0  0  0  0  0  0
   13.9770   39.6160    8.5260 O   0  0  0  0  0  1  0  0  0  0  0  0
   11.8870   39.8870   11.3680 N   0  0  0  0  0  0  0  0  0  0  0  0
   10.6780   40.5240   10.8390 C   0  0  0  0  0  0  0  0  0  0  0  0
    9.6680   39.5610   10.2010 C   0  0  0  0  0  0  0  0  0  0  0  0
    9.0130   39.8940    8.9890 C   0  0  0  0  0  0  0  0  0  0  0  0
    8.0870   39.0140    8.4010 C   0  0  0  0  0  0  0  0  0  0  0  0
    7.7960   37.7860    9.0170 C   0  0  0  0  0  0  0  0  0  0  0  0
    8.4320   37.4340   10.2220 C   0  0  0  0  0  0  0  0  0  0  0  0
    8.1280   36.1970   10.8270 C   0  0  0  0  0  0  0  0  0  0  0  0
    8.7500   35.8240   12.0310 C   0  0  0  0  0  0  0  0  0  0  0  0
    9.6810   36.6890   12.6340 C   0  0  0  0  0  0  0  0  0  0  0  0
    9.9880   37.9260   12.0360 C   0  0  0  0  0  0  0  0  0  0  0  0
    9.3710   38.3170   10.8230 C   0  0  0  0  0  0  0  0  0  0  0  0
   12.1410   39.7900   12.7300 C   0  0  0  0  0  0  0  0  0  0  0  0
   11.4180   40.2390   13.8550 C   0  0  0  0  0  0  0  0  0  0  0  0
   11.9110   39.9950   15.1470 C   0  0  0  0  0  0  0  0  0  0  0  0
   13.1220   39.3010   15.3110 C   0  0  0  0  0  0  0  0  0  0  0  0
   13.6000   39.0580   16.5550 F   0  0  0  0  0  0  0  0  0  0  0  0
   13.8400   38.8580   14.1830 C   0  0  0  0  0  0  0  0  0  0  0  0
   13.3720   39.0960   12.8680 C   0  0  0  0  0  0  0  0  0  0  0  0
   17.8126   39.3157   15.6583 H   0  0  0  0  0  0  0  0  0  0  0  0
   18.8098   39.2579   14.1654 H   0  0  0  0  0  0  0  0  0  0  0  0
   17.2428   40.1362   14.1654 H   0  0  0  0  0  0  0  0  0  0  0  0
   17.3832   37.1485   14.7734 H   0  0  0  0  0  0  0  0  0  0  0  0
   15.9776   38.1193   14.2234 H   0  0  0  0  0  0  0  0  0  0  0  0
   15.9483   41.1182   11.6643 H   0  0  0  0  0  0  0  0  0  0  0  0
   16.9308   40.7386   10.2093 H   0  0  0  0  0  0  0  0  0  0  0  0
   15.1638   40.4153   10.2093 H   0  0  0  0  0  0  0  0  0  0  0  0
   15.1659   37.6756   10.2824 H   0  0  0  0  0  0  0  0  0  0  0  0
   15.3562   37.3657   12.0630 H   0  0  0  0  0  0  0  0  0  0  0  0
   10.1764   41.0462   11.6671 H   0  0  0  0  0  0  0  0  0  0  0  0
   11.0103   41.1993   10.0368 H   0  0  0  0  0  0  0  0  0  0  0  0
    9.2323   40.8551    8.5010 H   0  0  0  0  0  0  0  0  0  0  0  0
    7.5905   39.2876    7.4583 H   0  0  0  0  0  0  0  0  0  0  0  0
    7.0704   37.0988    8.5573 H   0  0  0  0  0  0  0  0  0  0  0  0
    7.4005   35.5207   10.3544 H   0  0  0  0  0  0  0  0  0  0  0  0
    8.5095   34.8586   12.5003 H   0  0  0  0  0  0  0  0  0  0  0  0
   10.1704   36.3982   13.5752 H   0  0  0  0  0  0  0  0  0  0  0  0
   10.7156   38.5965   12.5166 H   0  0  0  0  0  0  0  0  0  0  0  0
   10.4694   40.7795   13.7204 H   0  0  0  0  0  0  0  0  0  0  0  0
   11.3517   40.3456   16.0270 H   0  0  0  0  0  0  0  0  0  0  0  0
   14.7857   38.3149   14.3270 H   0  0  0  0  0  0  0  0  0  0  0  0
  1  2  1  0
  2  3  1  0
  3  4  1  0
  4  5  2  0
  4  6  1  0
  6  7  1  0
  6  8  1  0
  8  9  1  0
  9 10  2  0
 10 11  1  0
 11 12  2  0
 11 13  1  0
 10 14  1  0
 14 15  1  0
 15 16  1  0
 16 17  2  0
 17 18  1  0
 18 19  2  0
 19 20  1  0
 20 21  2  0
 21 22  1  0
 22 23  2  0
 23 24  1  0
 24 25  2  0
 14 26  1  0
 26 27  2  0
 27 28  1  0
 28 29  2  0
 29 30  1  0
 29 31  1  0
 31 32  2  0
 32  9  1  0
 25 16  1  0
 32 26  1  0
 25 20  1  0
  1 33  1  0
  1 34  1  0
  1 35  1  0
  2 36  1  0
  2 37  1  0
  7 38  1  0
  7 39  1  0
  7 40  1  0
  8 41  1  0
  8 42  1  0
 15 43  1  0
 15 44  1  0
 17 45  1  0
 18 46  1  0
 19 47  1  0
 21 48  1  0
 22 49  1  0
 23 50  1  0
 24 51  1  0
 27 52  1  0
 28 53  1  0
 31 54  1  0
M  CHG  1  13  -1
M  END
>  <meeko>  (20) 
{"free_energy": -4.98, "intermolecular_energy": -7.37, "internal_energy": -2.0, "cluster_size": 292, "cluster_id": 10, "rank_in_cluster": 269}

$$$$

     RDKit          3D

 54 57  0  0  0  0  0  0  0  0999 V2000
   14.3540   36.8870   17.6330 C   0  0  0  0  0  0  0  0  0  0  0  0
   13.5060   38.1320   17.3570 C   0  0  0  0  0  0  0  0  0  0  0  0
   12.1380   37.7630   17.3040 O   0  0  0  0  0  0  0  0  0  0  0  0
   11.3120   38.0760   18.3260 C   0  0  0  0  0  0  0  0  0  0  0  0
   11.1990   37.3880   19.3410 O   0  0  0  0  0  0  0  0  0  0  0  0
   10.6330   39.2720   18.0590 N   0  0  0  0  0  0  0  0  0  0  0  0
   10.8740   40.4950   18.8330 C   0  0  0  0  0  0  0  0  0  0  0  0
    9.6170   39.3520   17.0020 C   0  0  0  0  0  0  0  0  0  0  0  0
    9.6330   38.1400   16.1000 C   0  0  0  0  0  0  0  0  0  0  0  0
   10.2290   37.9900   14.8600 C   0  0  0  0  0  0  0  0  0  0  0  0
   11.0510   38.9610   14.0740 C   0  0  0  0  0  0  0  0  0  0  0  0
   10.4700   39.7520   13.3000 O   0  0  0  0  0  0  0  0  0  0  0  0
   12.2980   38.9680   14.1750 O   0  0  0  0  0  1  0  0  0  0  0  0
    9.9260   36.7040   14.3630 N   0  0  0  0  0  0  0  0  0  0  0  0
   10.3450   36.0960   13.0970 C   0  0  0  0  0  0  0  0  0  0  0  0
    9.8520   36.8210   11.8380 C   0  0  0  0  0  0  0  0  0  0  0  0
    8.5070   36.6990   11.4100 C   0  0  0  0  0  0  0  0  0  0  0  0
    8.0510   37.3620   10.2570 C   0  0  0  0  0  0  0  0  0  0  0  0
    8.9330   38.1580    9.5100 C   0  0  0  0  0  0  0  0  0  0  0  0
   10.2750   38.2940    9.9140 C   0  0  0  0  0  0  0  0  0  0  0  0
   11.1470   39.0980    9.1500 C   0  0  0  0  0  0  0  0  0  0  0  0
   12.4920   39.2470    9.5350 C   0  0  0  0  0  0  0  0  0  0  0  0
   12.9670   38.5930   10.6850 C   0  0  0  0  0  0  0  0  0  0  0  0
   12.1010   37.7890   11.4510 C   0  0  0  0  0  0  0  0  0  0  0  0
   10.7440   37.6280   11.0790 C   0  0  0  0  0  0  0  0  0  0  0  0
    9.1350   36.0310   15.2850 C   0  0  0  0  0  0  0  0  0  0  0  0
    8.5590   34.7440   15.2670 C   0  0  0  0  0  0  0  0  0  0  0  0
    7.7950   34.3030   16.3600 C   0  0  0  0  0  0  0  0  0  0  0  0
    7.6120   35.1490   17.4680 C   0  0  0  0  0  0  0  0  0  0  0  0
    6.8800   34.7280   18.5270 F   0  0  0  0  0  0  0  0  0  0  0  0
    8.1870   36.4340   17.4780 C   0  0  0  0  0  0  0  0  0  0  0  0
    8.9560   36.9090   16.3880 C   0  0  0  0  0  0  0  0  0  0  0  0
   14.4518   36.7434   18.7192 H   0  0  0  0  0  0  0  0  0  0  0  0
   13.8673   36.0061   17.1890 H   0  0  0  0  0  0  0  0  0  0  0  0
   15.3520   37.0173   17.1890 H   0  0  0  0  0  0  0  0  0  0  0  0
   13.6579   38.8663   18.1619 H   0  0  0  0  0  0  0  0  0  0  0  0
   13.8057   38.5774   16.3969 H   0  0  0  0  0  0  0  0  0  0  0  0
   10.8285   40.2639   19.9075 H   0  0  0  0  0  0  0  0  0  0  0  0
   11.8683   40.8954   18.5859 H   0  0  0  0  0  0  0  0  0  0  0  0
   10.1059   41.2426   18.5859 H   0  0  0  0  0  0  0  0  0  0  0  0
    8.6248   39.4318   17.4701 H   0  0  0  0  0  0  0  0  0  0  0  0
    9.8415   40.2344   16.3848 H   0  0  0  0  0  0  0  0  0  0  0  0
   11.4446   36.0794   13.0733 H   0  0  0  0  0  0  0  0  0  0  0  0
    9.8938   35.0931   13.0721 H   0  0  0  0  0  0  0  0  0  0  0  0
    7.8089   36.0761   11.9885 H   0  0  0  0  0  0  0  0  0  0  0  0
    7.0028   37.2568    9.9404 H   0  0  0  0  0  0  0  0  0  0  0  0
    8.5756   38.6762    8.6079 H   0  0  0  0  0  0  0  0  0  0  0  0
   10.7742   39.6099    8.2506 H   0  0  0  0  0  0  0  0  0  0  0  0
   13.1703   39.8738    8.9375 H   0  0  0  0  0  0  0  0  0  0  0  0
   14.0182   38.7096   10.9875 H   0  0  0  0  0  0  0  0  0  0  0  0
   12.4829   37.2803   12.3484 H   0  0  0  0  0  0  0  0  0  0  0  0
    8.7078   34.0862   14.3980 H   0  0  0  0  0  0  0  0  0  0  0  0
    7.3420   33.3006   16.3492 H   0  0  0  0  0  0  0  0  0  0  0  0
    8.0354   37.0838   18.3525 H   0  0  0  0  0  0  0  0  0  0  0  0
  1  2  1  0
  2  3  1  0
  3  4  1  0
  4  5  2  0
  4  6  1  0
  6  7  1  0
  6  8  1  0
  8  9  1  0
  9 10  2  0
 10 11  1  0
 11 12  2  0
 11 13  1  0
 10 14  1  0
 14 15  1  0
 15 16  1  0
 16 17  2  0
 17 18  1  0
 18 19  2  0
 19 20  1  0
 20 21  2  0
 21 22  1  0
 22 23  2  0
 23 24  1  0
 24 25  2  0
 14 26  1  0
 26 27  2  0
 27 28  1  0
 28 29  2  0
 29 30  1  0
 29 31  1  0
 31 32  2  0
 32  9  1  0
 25 16  1  0
 32 26  1  0
 25 20  1  0
  1 33  1  0
  1 34  1  0
  1 35  1  0
  2 36  1  0
  2 37  1  0
  7 38  1  0
  7 39  1  0
  7 40  1  0
  8 41  1  0
  8 42  1  0
 15 43  1  0
 15 44  1  0
 17 45  1  0
 18 46  1  0
 19 47  1  0
 21 48  1  0
 22 49  1  0
 23 50  1  0
 24 51  1  0
 27 52  1  0
 28 53  1  0
 31 54  1  0
M  CHG  1  13  -1
M  END
>  <meeko>  (21) 
{"free_energy": -4.82, "intermolecular_energy": -7.21, "internal_energy": -2.04, "cluster_size": 8, "cluster_id": 121, "rank_in_cluster": 3}

$$$$

     RDKit          3D

 54 57  0  0  0  0  0  0  0  0999 V2000
    7.8370   35.0800    8.0180 C   0  0  0  0  0  0  0  0  0  0  0  0
    7.2800   36.3380    8.6910 C   0  0  0  0  0  0  0  0  0  0  0  0
    8.2540   37.3670    8.6350 O   0  0  0  0  0  0  0  0  0  0  0  0
    8.3910   38.2250    9.6690 C   0  0  0  0  0  0  0  0  0  0  0  0
    7.4370   38.7670   10.2310 O   0  0  0  0  0  0  0  0  0  0  0  0
    9.7430   38.3910    9.9940 N   0  0  0  0  0  0  0  0  0  0  0  0
   10.7270   37.3190    9.8100 C   0  0  0  0  0  0  0  0  0  0  0  0
   10.2400   39.6490   10.5670 C   0  0  0  0  0  0  0  0  0  0  0  0
   10.0980   39.6890   12.0710 C   0  0  0  0  0  0  0  0  0  0  0  0
    9.8730   38.6420   12.9480 C   0  0  0  0  0  0  0  0  0  0  0  0
    9.7430   37.1780   12.6720 C   0  0  0  0  0  0  0  0  0  0  0  0
    8.6020   36.7020   12.4820 O   0  0  0  0  0  0  0  0  0  0  0  0
   10.7530   36.4410   12.6510 O   0  0  0  0  0  1  0  0  0  0  0  0
    9.7470   39.1630   14.2530 N   0  0  0  0  0  0  0  0  0  0  0  0
    9.5140   38.4360   15.5050 C   0  0  0  0  0  0  0  0  0  0  0  0
   10.4960   37.2890   15.7770 C   0  0  0  0  0  0  0  0  0  0  0  0
   11.8630   37.5510   16.0450 C   0  0  0  0  0  0  0  0  0  0  0  0
   12.7660   36.5040   16.2950 C   0  0  0  0  0  0  0  0  0  0  0  0
   12.3190   35.1730   16.2790 C   0  0  0  0  0  0  0  0  0  0  0  0
   10.9670   34.8860   16.0130 C   0  0  0  0  0  0  0  0  0  0  0  0
   10.5360   33.5430   16.0000 C   0  0  0  0  0  0  0  0  0  0  0  0
    9.1890   33.2340   15.7370 C   0  0  0  0  0  0  0  0  0  0  0  0
    8.2700   34.2680   15.4850 C   0  0  0  0  0  0  0  0  0  0  0  0
    8.6950   35.6100   15.4960 C   0  0  0  0  0  0  0  0  0  0  0  0
   10.0470   35.9400   15.7600 C   0  0  0  0  0  0  0  0  0  0  0  0
    9.8910   40.5440   14.2110 C   0  0  0  0  0  0  0  0  0  0  0  0
    9.8370   41.5250   15.2220 C   0  0  0  0  0  0  0  0  0  0  0  0
   10.0290   42.8780   14.8960 C   0  0  0  0  0  0  0  0  0  0  0  0
   10.2770   43.2450   13.5620 C   0  0  0  0  0  0  0  0  0  0  0  0
   10.4670   44.5470   13.2420 F   0  0  0  0  0  0  0  0  0  0  0  0
   10.3260   42.2590   12.5570 C   0  0  0  0  0  0  0  0  0  0  0  0
   10.1290   40.8890   12.8540 C   0  0  0  0  0  0  0  0  0  0  0  0
    8.1548   34.3621    8.7885 H   0  0  0  0  0  0  0  0  0  0  0  0
    7.0569   34.6236    7.3911 H   0  0  0  0  0  0  0  0  0  0  0  0
    8.6993   35.3508    7.3911 H   0  0  0  0  0  0  0  0  0  0  0  0
    6.3700   36.6639    8.1659 H   0  0  0  0  0  0  0  0  0  0  0  0
    7.0349   36.1179    9.7405 H   0  0  0  0  0  0  0  0  0  0  0  0
   11.0610   36.9552   10.7929 H   0  0  0  0  0  0  0  0  0  0  0  0
   10.2673   36.4916    9.2496 H   0  0  0  0  0  0  0  0  0  0  0  0
   11.5907   37.7063    9.2496 H   0  0  0  0  0  0  0  0  0  0  0  0
   11.3036   39.7596   10.3089 H   0  0  0  0  0  0  0  0  0  0  0  0
    9.6383   40.4700   10.1499 H   0  0  0  0  0  0  0  0  0  0  0  0
    9.5876   39.1533   16.3357 H   0  0  0  0  0  0  0  0  0  0  0  0
    8.5189   37.9760   15.4146 H   0  0  0  0  0  0  0  0  0  0  0  0
   12.2226   38.5905   16.0575 H   0  0  0  0  0  0  0  0  0  0  0  0
   13.8229   36.7269   16.5032 H   0  0  0  0  0  0  0  0  0  0  0  0
   13.0263   34.3536   16.4746 H   0  0  0  0  0  0  0  0  0  0  0  0
   11.2556   32.7345   16.1962 H   0  0  0  0  0  0  0  0  0  0  0  0
    8.8554   32.1858   15.7285 H   0  0  0  0  0  0  0  0  0  0  0  0
    7.2166   34.0277   15.2788 H   0  0  0  0  0  0  0  0  0  0  0  0
    7.9686   36.4118   15.2972 H   0  0  0  0  0  0  0  0  0  0  0  0
    9.6448   41.2315   16.2646 H   0  0  0  0  0  0  0  0  0  0  0  0
    9.9854   43.6469   15.6814 H   0  0  0  0  0  0  0  0  0  0  0  0
   10.5219   42.5606   11.5175 H   0  0  0  0  0  0  0  0  0  0  0  0
  1  2  1  0
  2  3  1  0
  3  4  1  0
  4  5  2  0
  4  6  1  0
  6  7  1  0
  6  8  1  0
  8  9  1  0
  9 10  2  0
 10 11  1  0
 11 12  2  0
 11 13  1  0
 10 14  1  0
 14 15  1  0
 15 16  1  0
 16 17  2  0
 17 18  1  0
 18 19  2  0
 19 20  1  0
 20 21  2  0
 21 22  1  0
 22 23  2  0
 23 24  1  0
 24 25  2  0
 14 26  1  0
 26 27  2  0
 27 28  1  0
 28 29  2  0
 29 30  1  0
 29 31  1  0
 31 32  2  0
 32  9  1  0
 25 16  1  0
 32 26  1  0
 25 20  1  0
  1 33  1  0
  1 34  1  0
  1 35  1  0
  2 36  1  0
  2 37  1  0
  7 38  1  0
  7 39  1  0
  7 40  1  0
  8 41  1  0
  8 42  1  0
 15 43  1  0
 15 44  1  0
 17 45  1  0
 18 46  1  0
 19 47  1  0
 21 48  1  0
 22 49  1  0
 23 50  1  0
 24 51  1  0
 27 52  1  0
 28 53  1  0
 31 54  1  0
M  CHG  1  13  -1
M  END
>  <meeko>  (22) 
{"free_energy": -5.45, "intermolecular_energy": -7.83, "internal_energy": -1.87, "cluster_size": 48, "cluster_id": 59, "rank_in_cluster": 15}

$$$$

     RDKit          3D

 54 57  0  0  0  0  0  0  0  0999 V2000
    6.2950   38.3320    5.6970 C   0  0  0  0  0  0  0  0  0  0  0  0
    6.9600   38.2960    7.0760 C   0  0  0  0  0  0  0  0  0  0  0  0
    7.7950   37.1530    7.1620 O   0  0  0  0  0  0  0  0  0  0  0  0
    7.4420   36.1160    7.9510 C   0  0  0  0  0  0  0  0  0  0  0  0
    6.6920   35.2090    7.5840 O   0  0  0  0  0  0  0  0  0  0  0  0
    8.0490   36.2260    9.2080 N   0  0  0  0  0  0  0  0  0  0  0  0
    8.8310   35.1330    9.7960 C   0  0  0  0  0  0  0  0  0  0  0  0
    7.9070   37.4430   10.0190 C   0  0  0  0  0  0  0  0  0  0  0  0
    9.1000   37.6770   10.9150 C   0  0  0  0  0  0  0  0  0  0  0  0
   10.2260   38.4440   10.6760 C   0  0  0  0  0  0  0  0  0  0  0  0
   10.5720   39.2860    9.4890 C   0  0  0  0  0  0  0  0  0  0  0  0
   11.5060   38.9190    8.7430 O   0  0  0  0  0  0  0  0  0  0  0  0
    9.9520   40.3470    9.2580 O   0  0  0  0  0  1  0  0  0  0  0  0
   11.1060   38.3140   11.7720 N   0  0  0  0  0  0  0  0  0  0  0  0
   12.4130   38.9470   11.9710 C   0  0  0  0  0  0  0  0  0  0  0  0
   12.4380   40.4630   11.7320 C   0  0  0  0  0  0  0  0  0  0  0  0
   13.4180   41.0500   10.8930 C   0  0  0  0  0  0  0  0  0  0  0  0
   13.4450   42.4370   10.6710 C   0  0  0  0  0  0  0  0  0  0  0  0
   12.4930   43.2650   11.2880 C   0  0  0  0  0  0  0  0  0  0  0  0
   11.5100   42.7070   12.1270 C   0  0  0  0  0  0  0  0  0  0  0  0
   10.5620   43.5540   12.7380 C   0  0  0  0  0  0  0  0  0  0  0  0
    9.5720   43.0180   13.5810 C   0  0  0  0  0  0  0  0  0  0  0  0
    9.5280   41.6320   13.8140 C   0  0  0  0  0  0  0  0  0  0  0  0
   10.4720   40.7810   13.2080 C   0  0  0  0  0  0  0  0  0  0  0  0
   11.4760   41.3040   12.3550 C   0  0  0  0  0  0  0  0  0  0  0  0
   10.5420   37.4620   12.7130 C   0  0  0  0  0  0  0  0  0  0  0  0
   11.0100   36.9970   13.9590 C   0  0  0  0  0  0  0  0  0  0  0  0
   10.2150   36.1300   14.7270 C   0  0  0  0  0  0  0  0  0  0  0  0
    8.9550   35.7320   14.2470 C   0  0  0  0  0  0  0  0  0  0  0  0
    8.1820   34.9000   14.9840 F   0  0  0  0  0  0  0  0  0  0  0  0
    8.4960   36.1980   13.0000 C   0  0  0  0  0  0  0  0  0  0  0  0
    9.2780   37.0670   12.2000 C   0  0  0  0  0  0  0  0  0  0  0  0
    5.2033   38.3911    5.8178 H   0  0  0  0  0  0  0  0  0  0  0  0
    6.6506   39.2122    5.1413 H   0  0  0  0  0  0  0  0  0  0  0  0
    6.5535   37.4185    5.1413 H   0  0  0  0  0  0  0  0  0  0  0  0
    7.5642   39.2043    7.2168 H   0  0  0  0  0  0  0  0  0  0  0  0
    6.1873   38.2485    7.8575 H   0  0  0  0  0  0  0  0  0  0  0  0
    8.7846   35.1979   10.8931 H   0  0  0  0  0  0  0  0  0  0  0  0
    8.4170   34.1682    9.4679 H   0  0  0  0  0  0  0  0  0  0  0  0
    9.8779   35.2134    9.4679 H   0  0  0  0  0  0  0  0  0  0  0  0
    7.7956   38.3058    9.3458 H   0  0  0  0  0  0  0  0  0  0  0  0
    7.0229   37.3180   10.6615 H   0  0  0  0  0  0  0  0  0  0  0  0
   12.7299   38.7589   13.0074 H   0  0  0  0  0  0  0  0  0  0  0  0
   13.0878   38.5049   11.2233 H   0  0  0  0  0  0  0  0  0  0  0  0
   14.1693   40.4095   10.4080 H   0  0  0  0  0  0  0  0  0  0  0  0
   14.2114   42.8743   10.0142 H   0  0  0  0  0  0  0  0  0  0  0  0
   12.5156   44.3511   11.1154 H   0  0  0  0  0  0  0  0  0  0  0  0
   10.5971   44.6380   12.5545 H   0  0  0  0  0  0  0  0  0  0  0  0
    8.8343   43.6810   14.0566 H   0  0  0  0  0  0  0  0  0  0  0  0
    8.7534   41.2111   14.4720 H   0  0  0  0  0  0  0  0  0  0  0  0
   10.4299   39.6985   13.3986 H   0  0  0  0  0  0  0  0  0  0  0  0
   11.9965   37.3127   14.3294 H   0  0  0  0  0  0  0  0  0  0  0  0
   10.5767   35.7643   15.6993 H   0  0  0  0  0  0  0  0  0  0  0  0
    7.5070   35.8798   12.6386 H   0  0  0  0  0  0  0  0  0  0  0  0
  1  2  1  0
  2  3  1  0
  3  4  1  0
  4  5  2  0
  4  6  1  0
  6  7  1  0
  6  8  1  0
  8  9  1  0
  9 10  2  0
 10 11  1  0
 11 12  2  0
 11 13  1  0
 10 14  1  0
 14 15  1  0
 15 16  1  0
 16 17  2  0
 17 18  1  0
 18 19  2  0
 19 20  1  0
 20 21  2  0
 21 22  1  0
 22 23  2  0
 23 24  1  0
 24 25  2  0
 14 26  1  0
 26 27  2  0
 27 28  1  0
 28 29  2  0
 29 30  1  0
 29 31  1  0
 31 32  2  0
 32  9  1  0
 25 16  1  0
 32 26  1  0
 25 20  1  0
  1 33  1  0
  1 34  1  0
  1 35  1  0
  2 36  1  0
  2 37  1  0
  7 38  1  0
  7 39  1  0
  7 40  1  0
  8 41  1  0
  8 42  1  0
 15 43  1  0
 15 44  1  0
 17 45  1  0
 18 46  1  0
 19 47  1  0
 21 48  1  0
 22 49  1  0
 23 50  1  0
 24 51  1  0
 27 52  1  0
 28 53  1  0
 31 54  1  0
M  CHG  1  13  -1
M  END
>  <meeko>  (23) 
{"free_energy": -5.68, "intermolecular_energy": -8.06, "internal_energy": -1.96, "cluster_size": 124, "cluster_id": 20, "rank_in_cluster": 74}

$$$$

     RDKit          3D

 54 57  0  0  0  0  0  0  0  0999 V2000
   13.8940   44.2550   15.1500 C   0  0  0  0  0  0  0  0  0  0  0  0
   14.5120   43.2760   14.1480 C   0  0  0  0  0  0  0  0  0  0  0  0
   14.2880   43.7530   12.8310 O   0  0  0  0  0  0  0  0  0  0  0  0
   14.3660   42.9050   11.7830 C   0  0  0  0  0  0  0  0  0  0  0  0
   15.3280   42.8630   11.0140 O   0  0  0  0  0  0  0  0  0  0  0  0
   13.2200   42.1020   11.7140 N   0  0  0  0  0  0  0  0  0  0  0  0
   11.8790   42.6320   11.9890 C   0  0  0  0  0  0  0  0  0  0  0  0
   13.3090   40.6730   11.3890 C   0  0  0  0  0  0  0  0  0  0  0  0
   11.9830   39.9660   11.5480 C   0  0  0  0  0  0  0  0  0  0  0  0
   10.8500   40.0620   10.7600 C   0  0  0  0  0  0  0  0  0  0  0  0
   10.6190   40.8580    9.5140 C   0  0  0  0  0  0  0  0  0  0  0  0
   11.6060   41.3500    8.9250 O   0  0  0  0  0  0  0  0  0  0  0  0
    9.4610   41.0430    9.0810 O   0  0  0  0  0  1  0  0  0  0  0  0
    9.8320   39.2680   11.3290 N   0  0  0  0  0  0  0  0  0  0  0  0
    8.4660   39.0510   10.8420 C   0  0  0  0  0  0  0  0  0  0  0  0
    8.2620   37.7510   10.0530 C   0  0  0  0  0  0  0  0  0  0  0  0
    8.5570   36.4940   10.6360 C   0  0  0  0  0  0  0  0  0  0  0  0
    8.3710   35.3010    9.9160 C   0  0  0  0  0  0  0  0  0  0  0  0
    7.8880   35.3430    8.5990 C   0  0  0  0  0  0  0  0  0  0  0  0
    7.5880   36.5800    7.9970 C   0  0  0  0  0  0  0  0  0  0  0  0
    7.1040   36.6040    6.6730 C   0  0  0  0  0  0  0  0  0  0  0  0
    6.7990   37.8280    6.0510 C   0  0  0  0  0  0  0  0  0  0  0  0
    6.9770   39.0320    6.7540 C   0  0  0  0  0  0  0  0  0  0  0  0
    7.4610   39.0160    8.0770 C   0  0  0  0  0  0  0  0  0  0  0  0
    7.7730   37.7910    8.7180 C   0  0  0  0  0  0  0  0  0  0  0  0
   10.3140   38.6630   12.4830 C   0  0  0  0  0  0  0  0  0  0  0  0
    9.7050   37.7980   13.4150 C   0  0  0  0  0  0  0  0  0  0  0  0
   10.4420   37.3180   14.5100 C   0  0  0  0  0  0  0  0  0  0  0  0
   11.7850   37.7030   14.6690 C   0  0  0  0  0  0  0  0  0  0  0  0
   12.5010   37.2400   15.7210 F   0  0  0  0  0  0  0  0  0  0  0  0
   12.3850   38.5700   13.7360 C   0  0  0  0  0  0  0  0  0  0  0  0
   11.6660   39.0760   12.6260 C   0  0  0  0  0  0  0  0  0  0  0  0
   14.1083   43.9155   16.1741 H   0  0  0  0  0  0  0  0  0  0  0  0
   14.3243   45.2558   14.9979 H   0  0  0  0  0  0  0  0  0  0  0  0
   12.8054   44.2970   14.9979 H   0  0  0  0  0  0  0  0  0  0  0  0
   15.5937   43.1959   14.3313 H   0  0  0  0  0  0  0  0  0  0  0  0
   14.0491   42.2851   14.2659 H   0  0  0  0  0  0  0  0  0  0  0  0
   11.7247   42.6930   13.0764 H   0  0  0  0  0  0  0  0  0  0  0  0
   11.7838   43.6354   11.5483 H   0  0  0  0  0  0  0  0  0  0  0  0
   11.1236   41.9648   11.5483 H   0  0  0  0  0  0  0  0  0  0  0  0
   13.6437   40.5673   10.3465 H   0  0  0  0  0  0  0  0  0  0  0  0
   14.0224   40.2123   12.0881 H   0  0  0  0  0  0  0  0  0  0  0  0
    7.7919   39.0330   11.7111 H   0  0  0  0  0  0  0  0  0  0  0  0
    8.2525   39.8734   10.1434 H   0  0  0  0  0  0  0  0  0  0  0  0
    8.9372   36.4508   11.6673 H   0  0  0  0  0  0  0  0  0  0  0  0
    8.6042   34.3338   10.3853 H   0  0  0  0  0  0  0  0  0  0  0  0
    7.7437   34.4088    8.0365 H   0  0  0  0  0  0  0  0  0  0  0  0
    6.9643   35.6611    6.1240 H   0  0  0  0  0  0  0  0  0  0  0  0
    6.4223   37.8430    5.0176 H   0  0  0  0  0  0  0  0  0  0  0  0
    6.7376   39.9901    6.2695 H   0  0  0  0  0  0  0  0  0  0  0  0
    7.5982   39.9639    8.6180 H   0  0  0  0  0  0  0  0  0  0  0  0
    8.6543   37.4995   13.2848 H   0  0  0  0  0  0  0  0  0  0  0  0
    9.9706   36.6437   15.2401 H   0  0  0  0  0  0  0  0  0  0  0  0
   13.4370   38.8611   13.8725 H   0  0  0  0  0  0  0  0  0  0  0  0
  1  2  1  0
  2  3  1  0
  3  4  1  0
  4  5  2  0
  4  6  1  0
  6  7  1  0
  6  8  1  0
  8  9  1  0
  9 10  2  0
 10 11  1  0
 11 12  2  0
 11 13  1  0
 10 14  1  0
 14 15  1  0
 15 16  1  0
 16 17  2  0
 17 18  1  0
 18 19  2  0
 19 20  1  0
 20 21  2  0
 21 22  1  0
 22 23  2  0
 23 24  1  0
 24 25  2  0
 14 26  1  0
 26 27  2  0
 27 28  1  0
 28 29  2  0
 29 30  1  0
 29 31  1  0
 31 32  2  0
 32  9  1  0
 25 16  1  0
 32 26  1  0
 25 20  1  0
  1 33  1  0
  1 34  1  0
  1 35  1  0
  2 36  1  0
  2 37  1  0
  7 38  1  0
  7 39  1  0
  7 40  1  0
  8 41  1  0
  8 42  1  0
 15 43  1  0
 15 44  1  0
 17 45  1  0
 18 46  1  0
 19 47  1  0
 21 48  1  0
 22 49  1  0
 23 50  1  0
 24 51  1  0
 27 52  1  0
 28 53  1  0
 31 54  1  0
M  CHG  1  13  -1
M  END
>  <meeko>  (24) 
{"free_energy": -5.31, "intermolecular_energy": -7.69, "internal_energy": -1.57, "cluster_size": 42, "cluster_id": 46, "rank_in_cluster": 24}

$$$$

     RDKit          3D

 54 57  0  0  0  0  0  0  0  0999 V2000
   14.5140   41.5740   16.6760 C   0  0  0  0  0  0  0  0  0  0  0  0
   15.2580   41.5190   15.3390 C   0  0  0  0  0  0  0  0  0  0  0  0
   14.5140   40.7310   14.4240 O   0  0  0  0  0  0  0  0  0  0  0  0
   13.4380   41.2550   13.7990 C   0  0  0  0  0  0  0  0  0  0  0  0
   13.5180   41.9920   12.8140 O   0  0  0  0  0  0  0  0  0  0  0  0
   12.2560   40.8370   14.4230 N   0  0  0  0  0  0  0  0  0  0  0  0
   11.0780   41.7060   14.5260 C   0  0  0  0  0  0  0  0  0  0  0  0
   12.1470   39.5060   15.0350 C   0  0  0  0  0  0  0  0  0  0  0  0
   11.4850   38.5060   14.1170 C   0  0  0  0  0  0  0  0  0  0  0  0
   11.6420   38.3460   12.7520 C   0  0  0  0  0  0  0  0  0  0  0  0
   12.5300   39.0860   11.8010 C   0  0  0  0  0  0  0  0  0  0  0  0
   12.0580   40.0580   11.1720 O   0  0  0  0  0  0  0  0  0  0  0  0
   13.7140   38.7260   11.6250 O   0  0  0  0  0  1  0  0  0  0  0  0
   10.7720   37.3260   12.3100 N   0  0  0  0  0  0  0  0  0  0  0  0
   10.5970   36.8040   10.9520 C   0  0  0  0  0  0  0  0  0  0  0  0
    9.6010   37.5850   10.0840 C   0  0  0  0  0  0  0  0  0  0  0  0
    9.5210   38.9980   10.1640 C   0  0  0  0  0  0  0  0  0  0  0  0
    8.6110   39.7170    9.3710 C   0  0  0  0  0  0  0  0  0  0  0  0
    7.7620   39.0360    8.4840 C   0  0  0  0  0  0  0  0  0  0  0  0
    7.8210   37.6330    8.3870 C   0  0  0  0  0  0  0  0  0  0  0  0
    6.9610   36.9660    7.4910 C   0  0  0  0  0  0  0  0  0  0  0  0
    7.0020   35.5650    7.3780 C   0  0  0  0  0  0  0  0  0  0  0  0
    7.9070   34.8270    8.1630 C   0  0  0  0  0  0  0  0  0  0  0  0
    8.7680   35.4870    9.0600 C   0  0  0  0  0  0  0  0  0  0  0  0
    8.7400   36.8980    9.1860 C   0  0  0  0  0  0  0  0  0  0  0  0
   10.0580   36.8330   13.3940 C   0  0  0  0  0  0  0  0  0  0  0  0
    9.0670   35.8350   13.4910 C   0  0  0  0  0  0  0  0  0  0  0  0
    8.5050   35.5230   14.7410 C   0  0  0  0  0  0  0  0  0  0  0  0
    8.9370   36.2090   15.8890 C   0  0  0  0  0  0  0  0  0  0  0  0
    8.4030   35.9110   17.0970 F   0  0  0  0  0  0  0  0  0  0  0  0
    9.9250   37.2080   15.7840 C   0  0  0  0  0  0  0  0  0  0  0  0
   10.5040   37.5490   14.5380 C   0  0  0  0  0  0  0  0  0  0  0  0
   15.2390   41.5204   17.5015 H   0  0  0  0  0  0  0  0  0  0  0  0
   13.9504   42.5163   16.7435 H   0  0  0  0  0  0  0  0  0  0  0  0
   13.8180   40.7249   16.7435 H   0  0  0  0  0  0  0  0  0  0  0  0
   15.3724   42.5374   14.9393 H   0  0  0  0  0  0  0  0  0  0  0  0
   16.2527   41.0733   15.4873 H   0  0  0  0  0  0  0  0  0  0  0  0
   10.8422   41.8799   15.5863 H   0  0  0  0  0  0  0  0  0  0  0  0
   11.2875   42.6675   14.0345 H   0  0  0  0  0  0  0  0  0  0  0  0
   10.2212   41.2220   14.0345 H   0  0  0  0  0  0  0  0  0  0  0  0
   13.1569   39.1459   15.2811 H   0  0  0  0  0  0  0  0  0  0  0  0
   11.5235   39.5999   15.9363 H   0  0  0  0  0  0  0  0  0  0  0  0
   11.5756   36.8222   10.4500 H   0  0  0  0  0  0  0  0  0  0  0  0
   10.1832   35.7907   11.0614 H   0  0  0  0  0  0  0  0  0  0  0  0
   10.1813   39.5396   10.8573 H   0  0  0  0  0  0  0  0  0  0  0  0
    8.5637   40.8135    9.4451 H   0  0  0  0  0  0  0  0  0  0  0  0
    7.0496   39.5998    7.8639 H   0  0  0  0  0  0  0  0  0  0  0  0
    6.2545   37.5442    6.8774 H   0  0  0  0  0  0  0  0  0  0  0  0
    6.3289   35.0478    6.6784 H   0  0  0  0  0  0  0  0  0  0  0  0
    7.9418   33.7310    8.0755 H   0  0  0  0  0  0  0  0  0  0  0  0
    9.4707   34.9005    9.6702 H   0  0  0  0  0  0  0  0  0  0  0  0
    8.7338   35.3008   12.5890 H   0  0  0  0  0  0  0  0  0  0  0  0
    7.7308   34.7456   14.8203 H   0  0  0  0  0  0  0  0  0  0  0  0
   10.2542   37.7353   16.6915 H   0  0  0  0  0  0  0  0  0  0  0  0
  1  2  1  0
  2  3  1  0
  3  4  1  0
  4  5  2  0
  4  6  1  0
  6  7  1  0
  6  8  1  0
  8  9  1  0
  9 10  2  0
 10 11  1  0
 11 12  2  0
 11 13  1  0
 10 14  1  0
 14 15  1  0
 15 16  1  0
 16 17  2  0
 17 18  1  0
 18 19  2  0
 19 20  1  0
 20 21  2  0
 21 22  1  0
 22 23  2  0
 23 24  1  0
 24 25  2  0
 14 26  1  0
 26 27  2  0
 27 28  1  0
 28 29  2  0
 29 30  1  0
 29 31  1  0
 31 32  2  0
 32  9  1  0
 25 16  1  0
 32 26  1  0
 25 20  1  0
  1 33  1  0
  1 34  1  0
  1 35  1  0
  2 36  1  0
  2 37  1  0
  7 38  1  0
  7 39  1  0
  7 40  1  0
  8 41  1  0
  8 42  1  0
 15 43  1  0
 15 44  1  0
 17 45  1  0
 18 46  1  0
 19 47  1  0
 21 48  1  0
 22 49  1  0
 23 50  1  0
 24 51  1  0
 27 52  1  0
 28 53  1  0
 31 54  1  0
M  CHG  1  13  -1
M  END
>  <meeko>  (25) 
{"free_energy": -5.6, "intermolecular_energy": -7.99, "internal_energy": -1.69, "cluster_size": 326, "cluster_id": 11, "rank_in_cluster": 204}

$$$$

     RDKit          3D

 54 57  0  0  0  0  0  0  0  0999 V2000
    9.6290   38.6380   15.7560 C   0  0  0  0  0  0  0  0  0  0  0  0
    9.5620   38.6970   17.2840 C   0  0  0  0  0  0  0  0  0  0  0  0
    9.1450   39.9930   17.6830 O   0  0  0  0  0  0  0  0  0  0  0  0
    9.6470   41.0850   17.0670 C   0  0  0  0  0  0  0  0  0  0  0  0
    8.9440   41.9750   16.5870 O   0  0  0  0  0  0  0  0  0  0  0  0
   11.0480   41.0480   17.0670 N   0  0  0  0  0  0  0  0  0  0  0  0
   11.8140   40.4810   18.1820 C   0  0  0  0  0  0  0  0  0  0  0  0
   11.8240   41.6090   15.9530 C   0  0  0  0  0  0  0  0  0  0  0  0
   11.3860   41.0570   14.6160 C   0  0  0  0  0  0  0  0  0  0  0  0
   11.8940   39.9780   13.9150 C   0  0  0  0  0  0  0  0  0  0  0  0
   12.9900   39.0300   14.2870 C   0  0  0  0  0  0  0  0  0  0  0  0
   13.7000   38.5470   13.3790 O   0  0  0  0  0  0  0  0  0  0  0  0
   13.1790   38.7120   15.4820 O   0  0  0  0  0  1  0  0  0  0  0  0
   11.2140   39.8750   12.6830 N   0  0  0  0  0  0  0  0  0  0  0  0
   11.4010   38.8840   11.6190 C   0  0  0  0  0  0  0  0  0  0  0  0
   10.2720   37.8540   11.4910 C   0  0  0  0  0  0  0  0  0  0  0  0
   10.1300   36.8100   12.4400 C   0  0  0  0  0  0  0  0  0  0  0  0
    9.0970   35.8640   12.3260 C   0  0  0  0  0  0  0  0  0  0  0  0
    8.1870   35.9420   11.2600 C   0  0  0  0  0  0  0  0  0  0  0  0
    8.3080   36.9680   10.3030 C   0  0  0  0  0  0  0  0  0  0  0  0
    7.3860   37.0310    9.2380 C   0  0  0  0  0  0  0  0  0  0  0  0
    7.4870   38.0470    8.2710 C   0  0  0  0  0  0  0  0  0  0  0  0
    8.5130   39.0040    8.3680 C   0  0  0  0  0  0  0  0  0  0  0  0
    9.4380   38.9460    9.4280 C   0  0  0  0  0  0  0  0  0  0  0  0
    9.3500   37.9300   10.4110 C   0  0  0  0  0  0  0  0  0  0  0  0
   10.2700   40.8900   12.5950 C   0  0  0  0  0  0  0  0  0  0  0  0
    9.3530   41.2350   11.5810 C   0  0  0  0  0  0  0  0  0  0  0  0
    8.4890   42.3280   11.7610 C   0  0  0  0  0  0  0  0  0  0  0  0
    8.5420   43.0700   12.9530 C   0  0  0  0  0  0  0  0  0  0  0  0
    7.7090   44.1230   13.1340 F   0  0  0  0  0  0  0  0  0  0  0  0
    9.4630   42.7210   13.9600 C   0  0  0  0  0  0  0  0  0  0  0  0
   10.3510   41.6300   13.8050 C   0  0  0  0  0  0  0  0  0  0  0  0
   10.4221   37.9396   15.4504 H   0  0  0  0  0  0  0  0  0  0  0  0
    8.6630   38.2919   15.3597 H   0  0  0  0  0  0  0  0  0  0  0  0
    9.8501   39.6400   15.3597 H   0  0  0  0  0  0  0  0  0  0  0  0
    8.8421   37.9500   17.6498 H   0  0  0  0  0  0  0  0  0  0  0  0
   10.5548   38.4820   17.7060 H   0  0  0  0  0  0  0  0  0  0  0  0
   11.3718   40.8083   19.1346 H   0  0  0  0  0  0  0  0  0  0  0  0
   11.7880   39.3828   18.1238 H   0  0  0  0  0  0  0  0  0  0  0  0
   12.8567   40.8266   18.1238 H   0  0  0  0  0  0  0  0  0  0  0  0
   11.6934   42.7012   15.9451 H   0  0  0  0  0  0  0  0  0  0  0  0
   12.8780   41.3325   16.1032 H   0  0  0  0  0  0  0  0  0  0  0  0
   11.4839   39.4209   10.6625 H   0  0  0  0  0  0  0  0  0  0  0  0
   12.3073   38.3179   11.8802 H   0  0  0  0  0  0  0  0  0  0  0  0
   10.8391   36.7395   13.2780 H   0  0  0  0  0  0  0  0  0  0  0  0
    9.0015   35.0619   13.0726 H   0  0  0  0  0  0  0  0  0  0  0  0
    7.3787   35.2011   11.1721 H   0  0  0  0  0  0  0  0  0  0  0  0
    6.5840   36.2819    9.1632 H   0  0  0  0  0  0  0  0  0  0  0  0
    6.7660   38.0931    7.4415 H   0  0  0  0  0  0  0  0  0  0  0  0
    8.5931   39.8003    7.6134 H   0  0  0  0  0  0  0  0  0  0  0  0
   10.2380   39.6982    9.4934 H   0  0  0  0  0  0  0  0  0  0  0  0
    9.3142   40.6494   10.6507 H   0  0  0  0  0  0  0  0  0  0  0  0
    7.7736   42.6019   10.9716 H   0  0  0  0  0  0  0  0  0  0  0  0
    9.4927   43.3101   14.8885 H   0  0  0  0  0  0  0  0  0  0  0  0
  1  2  1  0
  2  3  1  0
  3  4  1  0
  4  5  2  0
  4  6  1  0
  6  7  1  0
  6  8  1  0
  8  9  1  0
  9 10  2  0
 10 11  1  0
 11 12  2  0
 11 13  1  0
 10 14  1  0
 14 15  1  0
 15 16  1  0
 16 17  2  0
 17 18  1  0
 18 19  2  0
 19 20  1  0
 20 21  2  0
 21 22  1  0
 22 23  2  0
 23 24  1  0
 24 25  2  0
 14 26  1  0
 26 27  2  0
 27 28  1  0
 28 29  2  0
 29 30  1  0
 29 31  1  0
 31 32  2  0
 32  9  1  0
 25 16  1  0
 32 26  1  0
 25 20  1  0
  1 33  1  0
  1 34  1  0
  1 35  1  0
  2 36  1  0
  2 37  1  0
  7 38  1  0
  7 39  1  0
  7 40  1  0
  8 41  1  0
  8 42  1  0
 15 43  1  0
 15 44  1  0
 17 45  1  0
 18 46  1  0
 19 47  1  0
 21 48  1  0
 22 49  1  0
 23 50  1  0
 24 51  1  0
 27 52  1  0
 28 53  1  0
 31 54  1  0
M  CHG  1  13  -1
M  END
>  <meeko>  (26) 
{"free_energy": -4.99, "intermolecular_energy": -7.38, "internal_energy": -2.19, "cluster_size": 47, "cluster_id": 29, "rank_in_cluster": 29}

$$$$

     RDKit          3D

 54 57  0  0  0  0  0  0  0  0999 V2000
   14.5750   42.2030   17.9790 C   0  0  0  0  0  0  0  0  0  0  0  0
   15.2960   41.0160   17.3340 C   0  0  0  0  0  0  0  0  0  0  0  0
   15.7190   41.3810   16.0300 O   0  0  0  0  0  0  0  0  0  0  0  0
   15.4260   40.5870   14.9770 C   0  0  0  0  0  0  0  0  0  0  0  0
   16.2290   39.7950   14.4810 O   0  0  0  0  0  0  0  0  0  0  0  0
   14.1060   40.7960   14.5570 N   0  0  0  0  0  0  0  0  0  0  0  0
   13.7490   41.8460   13.5970 C   0  0  0  0  0  0  0  0  0  0  0  0
   13.0010   39.9840   15.0860 C   0  0  0  0  0  0  0  0  0  0  0  0
   12.2380   39.2740   13.9910 C   0  0  0  0  0  0  0  0  0  0  0  0
   10.9100   38.8870   13.9720 C   0  0  0  0  0  0  0  0  0  0  0  0
    9.8440   39.0850   15.0030 C   0  0  0  0  0  0  0  0  0  0  0  0
    9.1670   38.0980   15.3650 O   0  0  0  0  0  0  0  0  0  0  0  0
    9.6210   40.2200   15.4780 O   0  0  0  0  0  1  0  0  0  0  0  0
   10.6550   38.1980   12.7670 N   0  0  0  0  0  0  0  0  0  0  0  0
    9.3940   37.6140   12.3020 C   0  0  0  0  0  0  0  0  0  0  0  0
    8.9280   38.1000   10.9230 C   0  0  0  0  0  0  0  0  0  0  0  0
    8.9960   39.4720   10.5760 C   0  0  0  0  0  0  0  0  0  0  0  0
    8.5710   39.9220    9.3140 C   0  0  0  0  0  0  0  0  0  0  0  0
    8.0670   39.0070    8.3750 C   0  0  0  0  0  0  0  0  0  0  0  0
    7.9880   37.6390    8.6970 C   0  0  0  0  0  0  0  0  0  0  0  0
    7.4780   36.7340    7.7420 C   0  0  0  0  0  0  0  0  0  0  0  0
    7.3900   35.3630    8.0420 C   0  0  0  0  0  0  0  0  0  0  0  0
    7.8120   34.8930    9.2980 C   0  0  0  0  0  0  0  0  0  0  0  0
    8.3200   35.7910   10.2560 C   0  0  0  0  0  0  0  0  0  0  0  0
    8.4170   37.1760    9.9710 C   0  0  0  0  0  0  0  0  0  0  0  0
   11.8210   38.1450   12.0150 C   0  0  0  0  0  0  0  0  0  0  0  0
   12.1050   37.5670   10.7600 C   0  0  0  0  0  0  0  0  0  0  0  0
   13.3960   37.6710   10.2160 C   0  0  0  0  0  0  0  0  0  0  0  0
   14.3980   38.3530   10.9280 C   0  0  0  0  0  0  0  0  0  0  0  0
   15.6440   38.4590   10.4070 F   0  0  0  0  0  0  0  0  0  0  0  0
   14.1090   38.9230   12.1820 C   0  0  0  0  0  0  0  0  0  0  0  0
   12.8190   38.8300   12.7590 C   0  0  0  0  0  0  0  0  0  0  0  0
   14.6291   42.1139   19.0740 H   0  0  0  0  0  0  0  0  0  0  0  0
   15.0566   43.1402   17.6631 H   0  0  0  0  0  0  0  0  0  0  0  0
   13.5213   42.2076   17.6631 H   0  0  0  0  0  0  0  0  0  0  0  0
   16.1711   40.7424   17.9418 H   0  0  0  0  0  0  0  0  0  0  0  0
   14.6126   40.1561   17.2742 H   0  0  0  0  0  0  0  0  0  0  0  0
   13.4413   42.7511   14.1412 H   0  0  0  0  0  0  0  0  0  0  0  0
   14.6193   42.0763   12.9650 H   0  0  0  0  0  0  0  0  0  0  0  0
   12.9187   41.4980   12.9650 H   0  0  0  0  0  0  0  0  0  0  0  0
   13.4125   39.2322   15.7756 H   0  0  0  0  0  0  0  0  0  0  0  0
   12.3021   40.6598   15.6006 H   0  0  0  0  0  0  0  0  0  0  0  0
    9.5195   36.5222   12.2553 H   0  0  0  0  0  0  0  0  0  0  0  0
    8.6229   37.9327   13.0188 H   0  0  0  0  0  0  0  0  0  0  0  0
    9.3875   40.1963   11.3055 H   0  0  0  0  0  0  0  0  0  0  0  0
    8.6331   40.9909    9.0617 H   0  0  0  0  0  0  0  0  0  0  0  0
    7.7339   39.3596    7.3877 H   0  0  0  0  0  0  0  0  0  0  0  0
    7.1481   37.1023    6.7594 H   0  0  0  0  0  0  0  0  0  0  0  0
    6.9919   34.6598    7.2956 H   0  0  0  0  0  0  0  0  0  0  0  0
    7.7451   33.8205    9.5329 H   0  0  0  0  0  0  0  0  0  0  0  0
    8.6453   35.4135   11.2367 H   0  0  0  0  0  0  0  0  0  0  0  0
   11.3162   37.0352   10.2077 H   0  0  0  0  0  0  0  0  0  0  0  0
   13.6217   37.2211    9.2379 H   0  0  0  0  0  0  0  0  0  0  0  0
   14.9040   39.4533   12.7268 H   0  0  0  0  0  0  0  0  0  0  0  0
  1  2  1  0
  2  3  1  0
  3  4  1  0
  4  5  2  0
  4  6  1  0
  6  7  1  0
  6  8  1  0
  8  9  1  0
  9 10  2  0
 10 11  1  0
 11 12  2  0
 11 13  1  0
 10 14  1  0
 14 15  1  0
 15 16  1  0
 16 17  2  0
 17 18  1  0
 18 19  2  0
 19 20  1  0
 20 21  2  0
 21 22  1  0
 22 23  2  0
 23 24  1  0
 24 25  2  0
 14 26  1  0
 26 27  2  0
 27 28  1  0
 28 29  2  0
 29 30  1  0
 29 31  1  0
 31 32  2  0
 32  9  1  0
 25 16  1  0
 32 26  1  0
 25 20  1  0
  1 33  1  0
  1 34  1  0
  1 35  1  0
  2 36  1  0
  2 37  1  0
  7 38  1  0
  7 39  1  0
  7 40  1  0
  8 41  1  0
  8 42  1  0
 15 43  1  0
 15 44  1  0
 17 45  1  0
 18 46  1  0
 19 47  1  0
 21 48  1  0
 22 49  1  0
 23 50  1  0
 24 51  1  0
 27 52  1  0
 28 53  1  0
 31 54  1  0
M  CHG  1  13  -1
M  END
>  <meeko>  (27) 
{"free_energy": -5.92, "intermolecular_energy": -8.3, "internal_energy": -1.75, "cluster_size": 283, "cluster_id": 7, "rank_in_cluster": 171}

$$$$

     RDKit          3D

 54 57  0  0  0  0  0  0  0  0999 V2000
    5.9570   38.9520    6.0600 C   0  0  0  0  0  0  0  0  0  0  0  0
    6.6290   37.6930    6.6140 C   0  0  0  0  0  0  0  0  0  0  0  0
    7.9110   38.0300    7.1180 O   0  0  0  0  0  0  0  0  0  0  0  0
    8.3740   37.4380    8.2390 C   0  0  0  0  0  0  0  0  0  0  0  0
    8.8520   36.3020    8.2570 O   0  0  0  0  0  0  0  0  0  0  0  0
    8.2370   38.2930    9.3400 N   0  0  0  0  0  0  0  0  0  0  0  0
    7.0500   38.2700   10.2020 C   0  0  0  0  0  0  0  0  0  0  0  0
    9.2710   39.2820    9.6700 C   0  0  0  0  0  0  0  0  0  0  0  0
    9.7390   39.1650   11.1020 C   0  0  0  0  0  0  0  0  0  0  0  0
   10.2350   38.0550   11.7630 C   0  0  0  0  0  0  0  0  0  0  0  0
   10.4840   36.6710   11.2510 C   0  0  0  0  0  0  0  0  0  0  0  0
   11.6330   36.3730   10.8610 O   0  0  0  0  0  0  0  0  0  0  0  0
    9.5550   35.8360   11.1960 O   0  0  0  0  0  1  0  0  0  0  0  0
   10.4830   38.4010   13.1090 N   0  0  0  0  0  0  0  0  0  0  0  0
   11.0180   37.5590   14.1820 C   0  0  0  0  0  0  0  0  0  0  0  0
   10.0190   36.5570   14.7760 C   0  0  0  0  0  0  0  0  0  0  0  0
    9.7580   35.3220   14.1300 C   0  0  0  0  0  0  0  0  0  0  0  0
    8.8440   34.4020   14.6700 C   0  0  0  0  0  0  0  0  0  0  0  0
    8.1700   34.7000   15.8660 C   0  0  0  0  0  0  0  0  0  0  0  0
    8.4110   35.9210   16.5250 C   0  0  0  0  0  0  0  0  0  0  0  0
    7.7250   36.2040   17.7240 C   0  0  0  0  0  0  0  0  0  0  0  0
    7.9490   37.4170   18.3990 C   0  0  0  0  0  0  0  0  0  0  0  0
    8.8610   38.3510   17.8760 C   0  0  0  0  0  0  0  0  0  0  0  0
    9.5480   38.0740   16.6780 C   0  0  0  0  0  0  0  0  0  0  0  0
    9.3350   36.8570   15.9850 C   0  0  0  0  0  0  0  0  0  0  0  0
   10.1440   39.7330   13.3090 C   0  0  0  0  0  0  0  0  0  0  0  0
   10.1870   40.5520   14.4560 C   0  0  0  0  0  0  0  0  0  0  0  0
    9.7850   41.8950   14.3740 C   0  0  0  0  0  0  0  0  0  0  0  0
    9.3450   42.4160   13.1450 C   0  0  0  0  0  0  0  0  0  0  0  0
    8.9600   43.7120   13.0580 F   0  0  0  0  0  0  0  0  0  0  0  0
    9.3010   41.5920   12.0040 C   0  0  0  0  0  0  0  0  0  0  0  0
    9.6930   40.2320   12.0570 C   0  0  0  0  0  0  0  0  0  0  0  0
    5.6193   39.5846    6.8941 H   0  0  0  0  0  0  0  0  0  0  0  0
    6.6767   39.5109    5.4439 H   0  0  0  0  0  0  0  0  0  0  0  0
    5.0921   38.6651    5.4439 H   0  0  0  0  0  0  0  0  0  0  0  0
    6.0140   37.2743    7.4242 H   0  0  0  0  0  0  0  0  0  0  0  0
    6.7323   36.9469    5.8123 H   0  0  0  0  0  0  0  0  0  0  0  0
    7.3626   38.2761   11.2566 H   0  0  0  0  0  0  0  0  0  0  0  0
    6.4313   39.1563    9.9978 H   0  0  0  0  0  0  0  0  0  0  0  0
    6.4661   37.3604    9.9978 H   0  0  0  0  0  0  0  0  0  0  0  0
   10.1321   39.1298    9.0027 H   0  0  0  0  0  0  0  0  0  0  0  0
    8.8339   40.2829    9.5391 H   0  0  0  0  0  0  0  0  0  0  0  0
   11.8710   36.9931   13.7792 H   0  0  0  0  0  0  0  0  0  0  0  0
   11.2948   38.2404   15.0000 H   0  0  0  0  0  0  0  0  0  0  0  0
   10.2791   35.0807   13.1918 H   0  0  0  0  0  0  0  0  0  0  0  0
    8.6560   33.4478   14.1561 H   0  0  0  0  0  0  0  0  0  0  0  0
    7.4538   33.9795   16.2878 H   0  0  0  0  0  0  0  0  0  0  0  0
    7.0119   35.4730   18.1329 H   0  0  0  0  0  0  0  0  0  0  0  0
    7.4121   37.6349   19.3340 H   0  0  0  0  0  0  0  0  0  0  0  0
    9.0382   39.2998   18.4036 H   0  0  0  0  0  0  0  0  0  0  0  0
   10.2583   38.8114   16.2758 H   0  0  0  0  0  0  0  0  0  0  0  0
   10.5352   40.1392   15.4143 H   0  0  0  0  0  0  0  0  0  0  0  0
    9.8143   42.5362   15.2673 H   0  0  0  0  0  0  0  0  0  0  0  0
    8.9541   42.0143   11.0494 H   0  0  0  0  0  0  0  0  0  0  0  0
  1  2  1  0
  2  3  1  0
  3  4  1  0
  4  5  2  0
  4  6  1  0
  6  7  1  0
  6  8  1  0
  8  9  1  0
  9 10  2  0
 10 11  1  0
 11 12  2  0
 11 13  1  0
 10 14  1  0
 14 15  1  0
 15 16  1  0
 16 17  2  0
 17 18  1  0
 18 19  2  0
 19 20  1  0
 20 21  2  0
 21 22  1  0
 22 23  2  0
 23 24  1  0
 24 25  2  0
 14 26  1  0
 26 27  2  0
 27 28  1  0
 28 29  2  0
 29 30  1  0
 29 31  1  0
 31 32  2  0
 32  9  1  0
 25 16  1  0
 32 26  1  0
 25 20  1  0
  1 33  1  0
  1 34  1  0
  1 35  1  0
  2 36  1  0
  2 37  1  0
  7 38  1  0
  7 39  1  0
  7 40  1  0
  8 41  1  0
  8 42  1  0
 15 43  1  0
 15 44  1  0
 17 45  1  0
 18 46  1  0
 19 47  1  0
 21 48  1  0
 22 49  1  0
 23 50  1  0
 24 51  1  0
 27 52  1  0
 28 53  1  0
 31 54  1  0
M  CHG  1  13  -1
M  END
>  <meeko>  (28) 
{"free_energy": -5.18, "intermolecular_energy": -7.57, "internal_energy": -1.85, "cluster_size": 136, "cluster_id": 23, "rank_in_cluster": 108}

$$$$

     RDKit          3D

 54 57  0  0  0  0  0  0  0  0999 V2000
   10.2460   40.9780   15.7040 C   0  0  0  0  0  0  0  0  0  0  0  0
   11.1090   40.5470   14.5150 C   0  0  0  0  0  0  0  0  0  0  0  0
   12.2030   41.4400   14.3840 O   0  0  0  0  0  0  0  0  0  0  0  0
   12.0340   42.6320   13.7740 C   0  0  0  0  0  0  0  0  0  0  0  0
   11.2680   43.5040   14.1900 O   0  0  0  0  0  0  0  0  0  0  0  0
   12.8450   42.7220   12.6360 N   0  0  0  0  0  0  0  0  0  0  0  0
   13.2870   44.0110   12.0920 C   0  0  0  0  0  0  0  0  0  0  0  0
   13.2720   41.5190   11.9080 C   0  0  0  0  0  0  0  0  0  0  0  0
   12.1150   40.8170   11.2360 C   0  0  0  0  0  0  0  0  0  0  0  0
   12.1330   39.6820   10.4450 C   0  0  0  0  0  0  0  0  0  0  0  0
   13.2830   38.8070   10.0560 C   0  0  0  0  0  0  0  0  0  0  0  0
   13.2740   37.6100   10.4150 O   0  0  0  0  0  0  0  0  0  0  0  0
   14.2420   39.2700    9.4020 O   0  0  0  0  0  1  0  0  0  0  0  0
   10.8230   39.4300    9.9830 N   0  0  0  0  0  0  0  0  0  0  0  0
   10.3540   38.3360    9.1280 C   0  0  0  0  0  0  0  0  0  0  0  0
    9.4340   37.3230    9.8220 C   0  0  0  0  0  0  0  0  0  0  0  0
    9.5200   37.1040   11.2200 C   0  0  0  0  0  0  0  0  0  0  0  0
    8.6790   36.1780   11.8610 C   0  0  0  0  0  0  0  0  0  0  0  0
    7.7380   35.4500   11.1140 C   0  0  0  0  0  0  0  0  0  0  0  0
    7.6340   35.6490    9.7250 C   0  0  0  0  0  0  0  0  0  0  0  0
    6.6840   34.9090    8.9910 C   0  0  0  0  0  0  0  0  0  0  0  0
    6.5630   35.0900    7.6020 C   0  0  0  0  0  0  0  0  0  0  0  0
    7.3940   36.0140    6.9430 C   0  0  0  0  0  0  0  0  0  0  0  0
    8.3460   36.7550    7.6690 C   0  0  0  0  0  0  0  0  0  0  0  0
    8.4810   36.5850    9.0690 C   0  0  0  0  0  0  0  0  0  0  0  0
    9.9670   40.4050   10.4790 C   0  0  0  0  0  0  0  0  0  0  0  0
    8.5840   40.6160   10.3080 C   0  0  0  0  0  0  0  0  0  0  0  0
    7.9560   41.7000   10.9450 C   0  0  0  0  0  0  0  0  0  0  0  0
    8.7130   42.5670   11.7520 C   0  0  0  0  0  0  0  0  0  0  0  0
    8.1140   43.6110   12.3720 F   0  0  0  0  0  0  0  0  0  0  0  0
   10.0950   42.3510   11.9150 C   0  0  0  0  0  0  0  0  0  0  0  0
   10.7570   41.2720   11.2800 C   0  0  0  0  0  0  0  0  0  0  0  0
   10.7598   40.7214   16.6421 H   0  0  0  0  0  0  0  0  0  0  0  0
   10.0804   42.0646   15.6620 H   0  0  0  0  0  0  0  0  0  0  0  0
    9.2778   40.4576   15.6620 H   0  0  0  0  0  0  0  0  0  0  0  0
   11.4849   39.5271   14.6839 H   0  0  0  0  0  0  0  0  0  0  0  0
   10.5058   40.5646   13.5953 H   0  0  0  0  0  0  0  0  0  0  0  0
   13.5222   44.6968   12.9192 H   0  0  0  0  0  0  0  0  0  0  0  0
   14.1847   43.8599   11.4745 H   0  0  0  0  0  0  0  0  0  0  0  0
   12.4855   44.4426   11.4745 H   0  0  0  0  0  0  0  0  0  0  0  0
   14.0035   41.8108   11.1400 H   0  0  0  0  0  0  0  0  0  0  0  0
   13.7123   40.8223   12.6365 H   0  0  0  0  0  0  0  0  0  0  0  0
    9.8033   38.7748    8.2829 H   0  0  0  0  0  0  0  0  0  0  0  0
   11.2509   37.7783    8.8206 H   0  0  0  0  0  0  0  0  0  0  0  0
   10.2562   37.6674   11.8122 H   0  0  0  0  0  0  0  0  0  0  0  0
    8.7576   36.0234   12.9472 H   0  0  0  0  0  0  0  0  0  0  0  0
    7.0817   34.7235   11.6156 H   0  0  0  0  0  0  0  0  0  0  0  0
    6.0347   34.1869    9.5076 H   0  0  0  0  0  0  0  0  0  0  0  0
    5.8210   34.5110    7.0326 H   0  0  0  0  0  0  0  0  0  0  0  0
    7.2998   36.1582    5.8566 H   0  0  0  0  0  0  0  0  0  0  0  0
    8.9920   37.4737    7.1435 H   0  0  0  0  0  0  0  0  0  0  0  0
    7.9968   39.9330    9.6766 H   0  0  0  0  0  0  0  0  0  0  0  0
    6.8772   41.8692   10.8127 H   0  0  0  0  0  0  0  0  0  0  0  0
   10.6742   43.0368   12.5508 H   0  0  0  0  0  0  0  0  0  0  0  0
  1  2  1  0
  2  3  1  0
  3  4  1  0
  4  5  2  0
  4  6  1  0
  6  7  1  0
  6  8  1  0
  8  9  1  0
  9 10  2  0
 10 11  1  0
 11 12  2  0
 11 13  1  0
 10 14  1  0
 14 15  1  0
 15 16  1  0
 16 17  2  0
 17 18  1  0
 18 19  2  0
 19 20  1  0
 20 21  2  0
 21 22  1  0
 22 23  2  0
 23 24  1  0
 24 25  2  0
 14 26  1  0
 26 27  2  0
 27 28  1  0
 28 29  2  0
 29 30  1  0
 29 31  1  0
 31 32  2  0
 32  9  1  0
 25 16  1  0
 32 26  1  0
 25 20  1  0
  1 33  1  0
  1 34  1  0
  1 35  1  0
  2 36  1  0
  2 37  1  0
  7 38  1  0
  7 39  1  0
  7 40  1  0
  8 41  1  0
  8 42  1  0
 15 43  1  0
 15 44  1  0
 17 45  1  0
 18 46  1  0
 19 47  1  0
 21 48  1  0
 22 49  1  0
 23 50  1  0
 24 51  1  0
 27 52  1  0
 28 53  1  0
 31 54  1  0
M  CHG  1  13  -1
M  END
>  <meeko>  (29) 
{"free_energy": -4.7, "intermolecular_energy": -7.09, "internal_energy": -1.24, "cluster_size": 47, "cluster_id": 29, "rank_in_cluster": 37}

$$$$

     RDKit          3D

 54 57  0  0  0  0  0  0  0  0999 V2000
   18.1490   40.3440   10.4170 C   0  0  0  0  0  0  0  0  0  0  0  0
   18.0270   38.8960   10.9000 C   0  0  0  0  0  0  0  0  0  0  0  0
   17.6010   38.8890   12.2530 O   0  0  0  0  0  0  0  0  0  0  0  0
   16.2960   38.7090   12.5500 C   0  0  0  0  0  0  0  0  0  0  0  0
   15.6680   37.6910   12.2570 O   0  0  0  0  0  0  0  0  0  0  0  0
   15.7880   39.8250   13.2270 N   0  0  0  0  0  0  0  0  0  0  0  0
   16.5550   41.0680   13.3690 C   0  0  0  0  0  0  0  0  0  0  0  0
   14.4630   39.7950   13.8600 C   0  0  0  0  0  0  0  0  0  0  0  0
   13.3880   39.3160   12.9120 C   0  0  0  0  0  0  0  0  0  0  0  0
   12.2450   38.5890   13.1950 C   0  0  0  0  0  0  0  0  0  0  0  0
   11.7260   38.1000   14.5100 C   0  0  0  0  0  0  0  0  0  0  0  0
   10.4940   38.1250   14.7160 O   0  0  0  0  0  0  0  0  0  0  0  0
   12.5120   37.6930   15.3930 O   0  0  0  0  0  1  0  0  0  0  0  0
   11.5700   38.3150   11.9860 N   0  0  0  0  0  0  0  0  0  0  0  0
   10.3140   37.5860   11.7890 C   0  0  0  0  0  0  0  0  0  0  0  0
    9.4300   38.1190   10.6540 C   0  0  0  0  0  0  0  0  0  0  0  0
    9.1580   39.5050   10.5350 C   0  0  0  0  0  0  0  0  0  0  0  0
    8.3490   39.9980    9.4960 C   0  0  0  0  0  0  0  0  0  0  0  0
    7.7950   39.1120    8.5580 C   0  0  0  0  0  0  0  0  0  0  0  0
    8.0480   37.7310    8.6560 C   0  0  0  0  0  0  0  0  0  0  0  0
    7.4830   36.8570    7.7050 C   0  0  0  0  0  0  0  0  0  0  0  0
    7.7220   35.4730    7.7830 C   0  0  0  0  0  0  0  0  0  0  0  0
    8.5300   34.9610    8.8140 C   0  0  0  0  0  0  0  0  0  0  0  0
    9.0970   35.8290    9.7670 C   0  0  0  0  0  0  0  0  0  0  0  0
    8.8660   37.2250    9.7030 C   0  0  0  0  0  0  0  0  0  0  0  0
   12.2830   38.8670   10.9290 C   0  0  0  0  0  0  0  0  0  0  0  0
   12.0520   38.8670    9.5380 C   0  0  0  0  0  0  0  0  0  0  0  0
   12.9480   39.5230    8.6780 C   0  0  0  0  0  0  0  0  0  0  0  0
   14.0710   40.1790    9.2120 C   0  0  0  0  0  0  0  0  0  0  0  0
   14.9370   40.8170    8.3890 F   0  0  0  0  0  0  0  0  0  0  0  0
   14.2970   40.1720   10.6020 C   0  0  0  0  0  0  0  0  0  0  0  0
   13.4150   39.5130   11.4930 C   0  0  0  0  0  0  0  0  0  0  0  0
   18.2057   41.0167   11.2855 H   0  0  0  0  0  0  0  0  0  0  0  0
   19.0595   40.4523    9.8093 H   0  0  0  0  0  0  0  0  0  0  0  0
   17.2695   40.6031    9.8093 H   0  0  0  0  0  0  0  0  0  0  0  0
   17.2915   38.3623   10.2801 H   0  0  0  0  0  0  0  0  0  0  0  0
   19.0033   38.3959   10.8178 H   0  0  0  0  0  0  0  0  0  0  0  0
   16.6939   41.2932   14.4367 H   0  0  0  0  0  0  0  0  0  0  0  0
   17.5373   40.9496   12.8884 H   0  0  0  0  0  0  0  0  0  0  0  0
   16.0087   41.8929   12.8884 H   0  0  0  0  0  0  0  0  0  0  0  0
   14.4993   39.1175   14.7258 H   0  0  0  0  0  0  0  0  0  0  0  0
   14.2112   40.8214   14.1651 H   0  0  0  0  0  0  0  0  0  0  0  0
   10.5588   36.5367   11.5677 H   0  0  0  0  0  0  0  0  0  0  0  0
    9.7354   37.7114   12.7161 H   0  0  0  0  0  0  0  0  0  0  0  0
    9.5864   40.2057   11.2668 H   0  0  0  0  0  0  0  0  0  0  0  0
    8.1502   41.0771    9.4180 H   0  0  0  0  0  0  0  0  0  0  0  0
    7.1622   39.4980    7.7452 H   0  0  0  0  0  0  0  0  0  0  0  0
    6.8524   37.2591    6.8984 H   0  0  0  0  0  0  0  0  0  0  0  0
    7.2785   34.7936    7.0402 H   0  0  0  0  0  0  0  0  0  0  0  0
    8.7196   33.8793    8.8762 H   0  0  0  0  0  0  0  0  0  0  0  0
    9.7264   35.4182   10.5702 H   0  0  0  0  0  0  0  0  0  0  0  0
   11.1705   38.3535    9.1266 H   0  0  0  0  0  0  0  0  0  0  0  0
   12.7720   39.5235    7.5922 H   0  0  0  0  0  0  0  0  0  0  0  0
   15.1793   40.6906   11.0053 H   0  0  0  0  0  0  0  0  0  0  0  0
  1  2  1  0
  2  3  1  0
  3  4  1  0
  4  5  2  0
  4  6  1  0
  6  7  1  0
  6  8  1  0
  8  9  1  0
  9 10  2  0
 10 11  1  0
 11 12  2  0
 11 13  1  0
 10 14  1  0
 14 15  1  0
 15 16  1  0
 16 17  2  0
 17 18  1  0
 18 19  2  0
 19 20  1  0
 20 21  2  0
 21 22  1  0
 22 23  2  0
 23 24  1  0
 24 25  2  0
 14 26  1  0
 26 27  2  0
 27 28  1  0
 28 29  2  0
 29 30  1  0
 29 31  1  0
 31 32  2  0
 32  9  1  0
 25 16  1  0
 32 26  1  0
 25 20  1  0
  1 33  1  0
  1 34  1  0
  1 35  1  0
  2 36  1  0
  2 37  1  0
  7 38  1  0
  7 39  1  0
  7 40  1  0
  8 41  1  0
  8 42  1  0
 15 43  1  0
 15 44  1  0
 17 45  1  0
 18 46  1  0
 19 47  1  0
 21 48  1  0
 22 49  1  0
 23 50  1  0
 24 51  1  0
 27 52  1  0
 28 53  1  0
 31 54  1  0
M  CHG  1  13  -1
M  END
>  <meeko>  (30) 
{"free_energy": -6.07, "intermolecular_energy": -8.45, "internal_energy": -1.67, "cluster_size": 167, "cluster_id": 22, "rank_in_cluster": 36}

$$$$

     RDKit          3D

 54 57  0  0  0  0  0  0  0  0999 V2000
   18.0710   41.1040    3.8650 C   0  0  0  0  0  0  0  0  0  0  0  0
   18.2860   39.7170    4.4750 C   0  0  0  0  0  0  0  0  0  0  0  0
   17.9920   39.7670    5.8620 O   0  0  0  0  0  0  0  0  0  0  0  0
   18.1330   40.9250    6.5420 C   0  0  0  0  0  0  0  0  0  0  0  0
   19.2260   41.4260    6.8080 O   0  0  0  0  0  0  0  0  0  0  0  0
   16.8790   41.4520    6.8800 N   0  0  0  0  0  0  0  0  0  0  0  0
   16.7320   42.5850    7.8010 C   0  0  0  0  0  0  0  0  0  0  0  0
   15.6400   40.8710    6.3470 C   0  0  0  0  0  0  0  0  0  0  0  0
   14.5490   40.7960    7.3900 C   0  0  0  0  0  0  0  0  0  0  0  0
   13.4860   41.6570    7.5960 C   0  0  0  0  0  0  0  0  0  0  0  0
   13.0900   42.8820    6.8340 C   0  0  0  0  0  0  0  0  0  0  0  0
   11.8990   43.2580    6.8790 O   0  0  0  0  0  0  0  0  0  0  0  0
   13.9300   43.5060    6.1500 O   0  0  0  0  0  1  0  0  0  0  0  0
   12.7610   41.2220    8.7260 N   0  0  0  0  0  0  0  0  0  0  0  0
   11.5560   41.8120    9.3170 C   0  0  0  0  0  0  0  0  0  0  0  0
   11.7500   42.4060   10.7180 C   0  0  0  0  0  0  0  0  0  0  0  0
   13.0300   42.8260   11.1580 C   0  0  0  0  0  0  0  0  0  0  0  0
   13.2120   43.3710   12.4410 C   0  0  0  0  0  0  0  0  0  0  0  0
   12.1160   43.5040   13.3090 C   0  0  0  0  0  0  0  0  0  0  0  0
   10.8350   43.0930   12.8960 C   0  0  0  0  0  0  0  0  0  0  0  0
    9.7460   43.2330   13.7810 C   0  0  0  0  0  0  0  0  0  0  0  0
    8.4570   42.8290   13.3900 C   0  0  0  0  0  0  0  0  0  0  0  0
    8.2550   42.2820   12.1100 C   0  0  0  0  0  0  0  0  0  0  0  0
    9.3380   42.1380   11.2220 C   0  0  0  0  0  0  0  0  0  0  0  0
   10.6430   42.5410   11.6000 C   0  0  0  0  0  0  0  0  0  0  0  0
   13.3610   40.0820    9.2440 C   0  0  0  0  0  0  0  0  0  0  0  0
   13.0450   39.2770   10.3570 C   0  0  0  0  0  0  0  0  0  0  0  0
   13.8330   38.1520   10.6550 C   0  0  0  0  0  0  0  0  0  0  0  0
   14.9320   37.8350    9.8380 C   0  0  0  0  0  0  0  0  0  0  0  0
   15.6930   36.7500   10.1170 F   0  0  0  0  0  0  0  0  0  0  0  0
   15.2440   38.6460    8.7290 C   0  0  0  0  0  0  0  0  0  0  0  0
   14.4730   39.7900    8.4080 C   0  0  0  0  0  0  0  0  0  0  0  0
   17.9562   41.8448    4.6700 H   0  0  0  0  0  0  0  0  0  0  0  0
   18.9387   41.3696    3.2433 H   0  0  0  0  0  0  0  0  0  0  0  0
   17.1636   41.0945    3.2433 H   0  0  0  0  0  0  0  0  0  0  0  0
   17.6206   38.9918    3.9837 H   0  0  0  0  0  0  0  0  0  0  0  0
   19.3314   39.4072    4.3296 H   0  0  0  0  0  0  0  0  0  0  0  0
   16.7790   42.2226    8.8385 H   0  0  0  0  0  0  0  0  0  0  0  0
   17.5441   43.3064    7.6274 H   0  0  0  0  0  0  0  0  0  0  0  0
   15.7627   43.0753    7.6274 H   0  0  0  0  0  0  0  0  0  0  0  0
   15.2883   41.4931    5.5108 H   0  0  0  0  0  0  0  0  0  0  0  0
   15.8628   39.8454    6.0175 H   0  0  0  0  0  0  0  0  0  0  0  0
   11.2060   42.6143    8.6508 H   0  0  0  0  0  0  0  0  0  0  0  0
   10.8318   40.9913    9.4267 H   0  0  0  0  0  0  0  0  0  0  0  0
   13.8943   42.7240   10.4853 H   0  0  0  0  0  0  0  0  0  0  0  0
   14.2126   43.6932   12.7650 H   0  0  0  0  0  0  0  0  0  0  0  0
   12.2590   43.9300   14.3130 H   0  0  0  0  0  0  0  0  0  0  0  0
    9.9056   43.6603   14.7820 H   0  0  0  0  0  0  0  0  0  0  0  0
    7.6098   42.9404   14.0827 H   0  0  0  0  0  0  0  0  0  0  0  0
    7.2476   41.9657   11.8018 H   0  0  0  0  0  0  0  0  0  0  0  0
    9.1693   41.7079   10.2237 H   0  0  0  0  0  0  0  0  0  0  0  0
   12.1826   39.5290   10.9917 H   0  0  0  0  0  0  0  0  0  0  0  0
   13.5907   37.5223   11.5238 H   0  0  0  0  0  0  0  0  0  0  0  0
   16.1062   38.3847    8.0979 H   0  0  0  0  0  0  0  0  0  0  0  0
  1  2  1  0
  2  3  1  0
  3  4  1  0
  4  5  2  0
  4  6  1  0
  6  7  1  0
  6  8  1  0
  8  9  1  0
  9 10  2  0
 10 11  1  0
 11 12  2  0
 11 13  1  0
 10 14  1  0
 14 15  1  0
 15 16  1  0
 16 17  2  0
 17 18  1  0
 18 19  2  0
 19 20  1  0
 20 21  2  0
 21 22  1  0
 22 23  2  0
 23 24  1  0
 24 25  2  0
 14 26  1  0
 26 27  2  0
 27 28  1  0
 28 29  2  0
 29 30  1  0
 29 31  1  0
 31 32  2  0
 32  9  1  0
 25 16  1  0
 32 26  1  0
 25 20  1  0
  1 33  1  0
  1 34  1  0
  1 35  1  0
  2 36  1  0
  2 37  1  0
  7 38  1  0
  7 39  1  0
  7 40  1  0
  8 41  1  0
  8 42  1  0
 15 43  1  0
 15 44  1  0
 17 45  1  0
 18 46  1  0
 19 47  1  0
 21 48  1  0
 22 49  1  0
 23 50  1  0
 24 51  1  0
 27 52  1  0
 28 53  1  0
 31 54  1  0
M  CHG  1  13  -1
M  END
>  <meeko>  (31) 
{"free_energy": -4.66, "intermolecular_energy": -7.05, "internal_energy": -1.8, "cluster_size": 6, "cluster_id": 125, "rank_in_cluster": 2}

$$$$

     RDKit          3D

 54 57  0  0  0  0  0  0  0  0999 V2000
    6.6160   38.5310    6.3840 C   0  0  0  0  0  0  0  0  0  0  0  0
    6.6510   37.2650    7.2430 C   0  0  0  0  0  0  0  0  0  0  0  0
    7.9970   36.8500    7.4100 O   0  0  0  0  0  0  0  0  0  0  0  0
    8.3190   35.9730    8.3840 C   0  0  0  0  0  0  0  0  0  0  0  0
    8.1690   34.7540    8.2760 O   0  0  0  0  0  0  0  0  0  0  0  0
    8.8400   36.6440    9.4980 N   0  0  0  0  0  0  0  0  0  0  0  0
    8.6500   38.0850    9.6990 C   0  0  0  0  0  0  0  0  0  0  0  0
    9.6330   35.9360   10.5110 C   0  0  0  0  0  0  0  0  0  0  0  0
   10.1610   36.8670   11.5770 C   0  0  0  0  0  0  0  0  0  0  0  0
   11.1080   37.8700   11.4610 C   0  0  0  0  0  0  0  0  0  0  0  0
   11.8520   38.3440   10.2530 C   0  0  0  0  0  0  0  0  0  0  0  0
   12.8580   37.7030    9.8780 O   0  0  0  0  0  0  0  0  0  0  0  0
   11.4860   39.3710    9.6420 O   0  0  0  0  0  1  0  0  0  0  0  0
   11.3310   38.4340   12.7350 N   0  0  0  0  0  0  0  0  0  0  0  0
   12.2350   39.5280   13.1010 C   0  0  0  0  0  0  0  0  0  0  0  0
   13.5290   39.0890   13.7990 C   0  0  0  0  0  0  0  0  0  0  0  0
   13.5680   38.9000   15.2040 C   0  0  0  0  0  0  0  0  0  0  0  0
   14.7510   38.4970   15.8470 C   0  0  0  0  0  0  0  0  0  0  0  0
   15.9190   38.2780   15.0980 C   0  0  0  0  0  0  0  0  0  0  0  0
   15.9060   38.4610   13.7020 C   0  0  0  0  0  0  0  0  0  0  0  0
   17.0870   38.2360   12.9660 C   0  0  0  0  0  0  0  0  0  0  0  0
   17.0980   38.4130   11.5710 C   0  0  0  0  0  0  0  0  0  0  0  0
   15.9240   38.8140   10.9080 C   0  0  0  0  0  0  0  0  0  0  0  0
   14.7410   39.0410   11.6380 C   0  0  0  0  0  0  0  0  0  0  0  0
   14.7130   38.8670   13.0440 C   0  0  0  0  0  0  0  0  0  0  0  0
   10.5260   37.7920   13.6680 C   0  0  0  0  0  0  0  0  0  0  0  0
   10.3800   37.9630   15.0600 C   0  0  0  0  0  0  0  0  0  0  0  0
    9.4680   37.1670   15.7720 C   0  0  0  0  0  0  0  0  0  0  0  0
    8.7040   36.2040   15.0900 C   0  0  0  0  0  0  0  0  0  0  0  0
    7.8190   35.4360   15.7700 F   0  0  0  0  0  0  0  0  0  0  0  0
    8.8570   36.0370   13.7000 C   0  0  0  0  0  0  0  0  0  0  0  0
    9.7740   36.8190   12.9570 C   0  0  0  0  0  0  0  0  0  0  0  0
    6.5915   39.4163    7.0365 H   0  0  0  0  0  0  0  0  0  0  0  0
    7.5135   38.5682    5.7490 H   0  0  0  0  0  0  0  0  0  0  0  0
    5.7179   38.5186    5.7490 H   0  0  0  0  0  0  0  0  0  0  0  0
    6.2066   37.4759    8.2269 H   0  0  0  0  0  0  0  0  0  0  0  0
    6.0777   36.4673    6.7479 H   0  0  0  0  0  0  0  0  0  0  0  0
    8.6211   38.3042   10.7765 H   0  0  0  0  0  0  0  0  0  0  0  0
    9.4837   38.6329    9.2356 H   0  0  0  0  0  0  0  0  0  0  0  0
    7.7028   38.3981    9.2356 H   0  0  0  0  0  0  0  0  0  0  0  0
    8.9988   35.1745   10.9884 H   0  0  0  0  0  0  0  0  0  0  0  0
   10.4961   35.4789   10.0048 H   0  0  0  0  0  0  0  0  0  0  0  0
   12.5082   40.0677   12.1823 H   0  0  0  0  0  0  0  0  0  0  0  0
   11.6892   40.1508   13.8251 H   0  0  0  0  0  0  0  0  0  0  0  0
   12.6590   39.0713   15.7993 H   0  0  0  0  0  0  0  0  0  0  0  0
   14.7622   38.3530   16.9375 H   0  0  0  0  0  0  0  0  0  0  0  0
   16.8445   37.9633   15.6025 H   0  0  0  0  0  0  0  0  0  0  0  0
   18.0040   37.9206   13.4852 H   0  0  0  0  0  0  0  0  0  0  0  0
   18.0218   38.2384   11.0000 H   0  0  0  0  0  0  0  0  0  0  0  0
   15.9298   38.9507    9.8165 H   0  0  0  0  0  0  0  0  0  0  0  0
   13.8287   39.3569   11.1108 H   0  0  0  0  0  0  0  0  0  0  0  0
   10.9798   38.7191   15.5877 H   0  0  0  0  0  0  0  0  0  0  0  0
    9.3520   37.2964   16.8582 H   0  0  0  0  0  0  0  0  0  0  0  0
    8.2500   35.2815   13.1796 H   0  0  0  0  0  0  0  0  0  0  0  0
  1  2  1  0
  2  3  1  0
  3  4  1  0
  4  5  2  0
  4  6  1  0
  6  7  1  0
  6  8  1  0
  8  9  1  0
  9 10  2  0
 10 11  1  0
 11 12  2  0
 11 13  1  0
 10 14  1  0
 14 15  1  0
 15 16  1  0
 16 17  2  0
 17 18  1  0
 18 19  2  0
 19 20  1  0
 20 21  2  0
 21 22  1  0
 22 23  2  0
 23 24  1  0
 24 25  2  0
 14 26  1  0
 26 27  2  0
 27 28  1  0
 28 29  2  0
 29 30  1  0
 29 31  1  0
 31 32  2  0
 32  9  1  0
 25 16  1  0
 32 26  1  0
 25 20  1  0
  1 33  1  0
  1 34  1  0
  1 35  1  0
  2 36  1  0
  2 37  1  0
  7 38  1  0
  7 39  1  0
  7 40  1  0
  8 41  1  0
  8 42  1  0
 15 43  1  0
 15 44  1  0
 17 45  1  0
 18 46  1  0
 19 47  1  0
 21 48  1  0
 22 49  1  0
 23 50  1  0
 24 51  1  0
 27 52  1  0
 28 53  1  0
 31 54  1  0
M  CHG  1  13  -1
M  END
>  <meeko>  (32) 
{"free_energy": -5.3, "intermolecular_energy": -7.69, "internal_energy": -1.59, "cluster_size": 51, "cluster_id": 80, "rank_in_cluster": 15}

$$$$

     RDKit          3D

 54 57  0  0  0  0  0  0  0  0999 V2000
   11.4810   43.5810   15.4270 C   0  0  0  0  0  0  0  0  0  0  0  0
   10.1380   43.4540   14.7030 C   0  0  0  0  0  0  0  0  0  0  0  0
   10.3540   42.9130   13.4100 O   0  0  0  0  0  0  0  0  0  0  0  0
    9.7060   41.7910   13.0290 C   0  0  0  0  0  0  0  0  0  0  0  0
    9.8420   40.7050   13.5960 O   0  0  0  0  0  0  0  0  0  0  0  0
    8.8780   42.0500   11.9290 N   0  0  0  0  0  0  0  0  0  0  0  0
    7.5200   42.5830   12.0830 C   0  0  0  0  0  0  0  0  0  0  0  0
    9.3240   41.7710   10.5580 C   0  0  0  0  0  0  0  0  0  0  0  0
   10.0440   40.4470   10.4480 C   0  0  0  0  0  0  0  0  0  0  0  0
   11.3660   40.1530   10.7320 C   0  0  0  0  0  0  0  0  0  0  0  0
   12.4490   41.0420   11.2580 C   0  0  0  0  0  0  0  0  0  0  0  0
   12.8570   41.9800   10.5400 O   0  0  0  0  0  0  0  0  0  0  0  0
   12.9490   40.8370   12.3850 O   0  0  0  0  0  1  0  0  0  0  0  0
   11.6070   38.7980   10.4190 N   0  0  0  0  0  0  0  0  0  0  0  0
   12.8520   38.0390   10.5620 C   0  0  0  0  0  0  0  0  0  0  0  0
   14.1000   38.7330    9.9990 C   0  0  0  0  0  0  0  0  0  0  0  0
   14.0700   39.3630    8.7300 C   0  0  0  0  0  0  0  0  0  0  0  0
   15.2100   40.0000    8.2110 C   0  0  0  0  0  0  0  0  0  0  0  0
   16.4030   40.0180    8.9510 C   0  0  0  0  0  0  0  0  0  0  0  0
   16.4580   39.3980   10.2140 C   0  0  0  0  0  0  0  0  0  0  0  0
   17.6650   39.4250   10.9430 C   0  0  0  0  0  0  0  0  0  0  0  0
   17.7440   38.8120   12.2060 C   0  0  0  0  0  0  0  0  0  0  0  0
   16.6140   38.1700   12.7430 C   0  0  0  0  0  0  0  0  0  0  0  0
   15.4060   38.1390   12.0200 C   0  0  0  0  0  0  0  0  0  0  0  0
   15.3090   38.7520   10.7460 C   0  0  0  0  0  0  0  0  0  0  0  0
   10.4380   38.2250    9.9340 C   0  0  0  0  0  0  0  0  0  0  0  0
   10.1510   36.9240    9.4740 C   0  0  0  0  0  0  0  0  0  0  0  0
    8.8530   36.6050    9.0390 C   0  0  0  0  0  0  0  0  0  0  0  0
    7.8490   37.5880    9.0660 C   0  0  0  0  0  0  0  0  0  0  0  0
    6.5950   37.2860    8.6510 F   0  0  0  0  0  0  0  0  0  0  0  0
    8.1450   38.8870    9.5230 C   0  0  0  0  0  0  0  0  0  0  0  0
    9.4440   39.2390    9.9620 C   0  0  0  0  0  0  0  0  0  0  0  0
   11.3144   43.5652   16.5142 H   0  0  0  0  0  0  0  0  0  0  0  0
   12.1313   42.7403   15.1435 H   0  0  0  0  0  0  0  0  0  0  0  0
   11.9622   44.5287   15.1435 H   0  0  0  0  0  0  0  0  0  0  0  0
    9.4739   42.7884   15.2739 H   0  0  0  0  0  0  0  0  0  0  0  0
    9.6706   44.4459   14.6150 H   0  0  0  0  0  0  0  0  0  0  0  0
    7.2819   42.6764   13.1529 H   0  0  0  0  0  0  0  0  0  0  0  0
    7.4580   43.5722   11.6058 H   0  0  0  0  0  0  0  0  0  0  0  0
    6.8018   41.9001   11.6058 H   0  0  0  0  0  0  0  0  0  0  0  0
    8.4450   41.7518    9.8970 H   0  0  0  0  0  0  0  0  0  0  0  0
   10.0290   42.5631   10.2655 H   0  0  0  0  0  0  0  0  0  0  0  0
   13.0181   37.8537   11.6335 H   0  0  0  0  0  0  0  0  0  0  0  0
   12.7206   37.1174    9.9761 H   0  0  0  0  0  0  0  0  0  0  0  0
   13.1402   39.3532    8.1423 H   0  0  0  0  0  0  0  0  0  0  0  0
   15.1677   40.4848    7.2245 H   0  0  0  0  0  0  0  0  0  0  0  0
   17.2950   40.5166    8.5440 H   0  0  0  0  0  0  0  0  0  0  0  0
   18.5482   39.9276   10.5219 H   0  0  0  0  0  0  0  0  0  0  0  0
   18.6868   38.8346   12.7722 H   0  0  0  0  0  0  0  0  0  0  0  0
   16.6739   37.6904   13.7311 H   0  0  0  0  0  0  0  0  0  0  0  0
   14.5282   37.6335   12.4488 H   0  0  0  0  0  0  0  0  0  0  0  0
   10.9416   36.1594    9.4554 H   0  0  0  0  0  0  0  0  0  0  0  0
    8.6242   35.5910    8.6792 H   0  0  0  0  0  0  0  0  0  0  0  0
    7.3484   39.6454    9.5392 H   0  0  0  0  0  0  0  0  0  0  0  0
  1  2  1  0
  2  3  1  0
  3  4  1  0
  4  5  2  0
  4  6  1  0
  6  7  1  0
  6  8  1  0
  8  9  1  0
  9 10  2  0
 10 11  1  0
 11 12  2  0
 11 13  1  0
 10 14  1  0
 14 15  1  0
 15 16  1  0
 16 17  2  0
 17 18  1  0
 18 19  2  0
 19 20  1  0
 20 21  2  0
 21 22  1  0
 22 23  2  0
 23 24  1  0
 24 25  2  0
 14 26  1  0
 26 27  2  0
 27 28  1  0
 28 29  2  0
 29 30  1  0
 29 31  1  0
 31 32  2  0
 32  9  1  0
 25 16  1  0
 32 26  1  0
 25 20  1  0
  1 33  1  0
  1 34  1  0
  1 35  1  0
  2 36  1  0
  2 37  1  0
  7 38  1  0
  7 39  1  0
  7 40  1  0
  8 41  1  0
  8 42  1  0
 15 43  1  0
 15 44  1  0
 17 45  1  0
 18 46  1  0
 19 47  1  0
 21 48  1  0
 22 49  1  0
 23 50  1  0
 24 51  1  0
 27 52  1  0
 28 53  1  0
 31 54  1  0
M  CHG  1  13  -1
M  END
>  <meeko>  (33) 
{"free_energy": -4.63, "intermolecular_energy": -7.02, "internal_energy": -1.89, "cluster_size": 15, "cluster_id": 199, "rank_in_cluster": 3}

$$$$

     RDKit          3D

 54 57  0  0  0  0  0  0  0  0999 V2000
    6.8790   35.2440    6.9270 C   0  0  0  0  0  0  0  0  0  0  0  0
    8.3240   34.7870    7.1430 C   0  0  0  0  0  0  0  0  0  0  0  0
    8.7200   35.0990    8.4690 O   0  0  0  0  0  0  0  0  0  0  0  0
    8.8930   36.3860    8.8380 C   0  0  0  0  0  0  0  0  0  0  0  0
    8.4350   37.3400    8.2060 O   0  0  0  0  0  0  0  0  0  0  0  0
    9.6440   36.4620   10.0180 N   0  0  0  0  0  0  0  0  0  0  0  0
   11.0690   36.8150   10.0140 C   0  0  0  0  0  0  0  0  0  0  0  0
    9.0440   36.1620   11.3240 C   0  0  0  0  0  0  0  0  0  0  0  0
    9.3480   37.2260   12.3520 C   0  0  0  0  0  0  0  0  0  0  0  0
    9.5300   37.0870   13.7160 C   0  0  0  0  0  0  0  0  0  0  0  0
    9.5150   35.8500   14.5590 C   0  0  0  0  0  0  0  0  0  0  0  0
   10.5890   35.4510   15.0590 O   0  0  0  0  0  0  0  0  0  0  0  0
    8.4520   35.2180   14.7440 O   0  0  0  0  0  1  0  0  0  0  0  0
    9.7280   38.3650   14.2820 N   0  0  0  0  0  0  0  0  0  0  0  0
    9.9710   38.7120   15.6850 C   0  0  0  0  0  0  0  0  0  0  0  0
   11.2360   38.0910   16.2930 C   0  0  0  0  0  0  0  0  0  0  0  0
   11.1480   37.1750   17.3710 C   0  0  0  0  0  0  0  0  0  0  0  0
   12.3040   36.6040   17.9310 C   0  0  0  0  0  0  0  0  0  0  0  0
   13.5700   36.9400   17.4250 C   0  0  0  0  0  0  0  0  0  0  0  0
   13.6830   37.8480   16.3560 C   0  0  0  0  0  0  0  0  0  0  0  0
   14.9620   38.1740   15.8600 C   0  0  0  0  0  0  0  0  0  0  0  0
   15.1000   39.0800   14.7930 C   0  0  0  0  0  0  0  0  0  0  0  0
   13.9550   39.6610   14.2180 C   0  0  0  0  0  0  0  0  0  0  0  0
   12.6750   39.3400   14.7080 C   0  0  0  0  0  0  0  0  0  0  0  0
   12.5190   38.4300   15.7830 C   0  0  0  0  0  0  0  0  0  0  0  0
    9.6720   39.3230   13.2780 C   0  0  0  0  0  0  0  0  0  0  0  0
    9.7910   40.7270   13.3120 C   0  0  0  0  0  0  0  0  0  0  0  0
    9.7010   41.4670   12.1210 C   0  0  0  0  0  0  0  0  0  0  0  0
    9.4940   40.8010   10.9010 C   0  0  0  0  0  0  0  0  0  0  0  0
    9.4100   41.5080    9.7490 F   0  0  0  0  0  0  0  0  0  0  0  0
    9.3720   39.3980   10.8750 C   0  0  0  0  0  0  0  0  0  0  0  0
    9.4520   38.6260   12.0600 C   0  0  0  0  0  0  0  0  0  0  0  0
    6.3934   35.3976    7.9020 H   0  0  0  0  0  0  0  0  0  0  0  0
    6.8735   36.1877    6.3619 H   0  0  0  0  0  0  0  0  0  0  0  0
    6.3318   34.4751    6.3619 H   0  0  0  0  0  0  0  0  0  0  0  0
    8.3937   33.7007    6.9845 H   0  0  0  0  0  0  0  0  0  0  0  0
    8.9844   35.3020    6.4298 H   0  0  0  0  0  0  0  0  0  0  0  0
   11.4276   36.9038   11.0501 H   0  0  0  0  0  0  0  0  0  0  0  0
   11.6395   36.0310    9.4945 H   0  0  0  0  0  0  0  0  0  0  0  0
   11.2076   37.7746    9.4945 H   0  0  0  0  0  0  0  0  0  0  0  0
    7.9531   36.0878   11.2036 H   0  0  0  0  0  0  0  0  0  0  0  0
    9.4737   35.2150   11.6824 H   0  0  0  0  0  0  0  0  0  0  0  0
   10.0589   39.8062   15.7564 H   0  0  0  0  0  0  0  0  0  0  0  0
    9.1225   38.3060   16.2553 H   0  0  0  0  0  0  0  0  0  0  0  0
   10.1607   36.9070   17.7753 H   0  0  0  0  0  0  0  0  0  0  0  0
   12.2168   35.8935   18.7662 H   0  0  0  0  0  0  0  0  0  0  0  0
   14.4739   36.4931   17.8645 H   0  0  0  0  0  0  0  0  0  0  0  0
   15.8561   37.7176   16.3097 H   0  0  0  0  0  0  0  0  0  0  0  0
   16.0994   39.3333   14.4096 H   0  0  0  0  0  0  0  0  0  0  0  0
   14.0603   40.3687   13.3825 H   0  0  0  0  0  0  0  0  0  0  0  0
   11.7864   39.8005   14.2516 H   0  0  0  0  0  0  0  0  0  0  0  0
    9.9541   41.2428   14.2698 H   0  0  0  0  0  0  0  0  0  0  0  0
    9.7922   42.5630   12.1435 H   0  0  0  0  0  0  0  0  0  0  0  0
    9.2109   38.8902    9.9126 H   0  0  0  0  0  0  0  0  0  0  0  0
  1  2  1  0
  2  3  1  0
  3  4  1  0
  4  5  2  0
  4  6  1  0
  6  7  1  0
  6  8  1  0
  8  9  1  0
  9 10  2  0
 10 11  1  0
 11 12  2  0
 11 13  1  0
 10 14  1  0
 14 15  1  0
 15 16  1  0
 16 17  2  0
 17 18  1  0
 18 19  2  0
 19 20  1  0
 20 21  2  0
 21 22  1  0
 22 23  2  0
 23 24  1  0
 24 25  2  0
 14 26  1  0
 26 27  2  0
 27 28  1  0
 28 29  2  0
 29 30  1  0
 29 31  1  0
 31 32  2  0
 32  9  1  0
 25 16  1  0
 32 26  1  0
 25 20  1  0
  1 33  1  0
  1 34  1  0
  1 35  1  0
  2 36  1  0
  2 37  1  0
  7 38  1  0
  7 39  1  0
  7 40  1  0
  8 41  1  0
  8 42  1  0
 15 43  1  0
 15 44  1  0
 17 45  1  0
 18 46  1  0
 19 47  1  0
 21 48  1  0
 22 49  1  0
 23 50  1  0
 24 51  1  0
 27 52  1  0
 28 53  1  0
 31 54  1  0
M  CHG  1  13  -1
M  END
>  <meeko>  (34) 
{"free_energy": -4.88, "intermolecular_energy": -7.26, "internal_energy": -1.87, "cluster_size": 47, "cluster_id": 38, "rank_in_cluster": 36}

$$$$

     RDKit          3D

 54 57  0  0  0  0  0  0  0  0999 V2000
   11.4700   33.2010   15.8470 C   0  0  0  0  0  0  0  0  0  0  0  0
   11.6270   34.7190   15.7310 C   0  0  0  0  0  0  0  0  0  0  0  0
   10.7150   35.3520   16.6140 O   0  0  0  0  0  0  0  0  0  0  0  0
    9.4560   34.8800   16.7390 C   0  0  0  0  0  0  0  0  0  0  0  0
    9.0290   34.3540   17.7680 O   0  0  0  0  0  0  0  0  0  0  0  0
    8.7350   35.0830   15.5550 N   0  0  0  0  0  0  0  0  0  0  0  0
    8.5300   34.0120   14.5740 C   0  0  0  0  0  0  0  0  0  0  0  0
    8.1690   36.3970   15.2230 C   0  0  0  0  0  0  0  0  0  0  0  0
    9.0120   37.1440   14.2160 C   0  0  0  0  0  0  0  0  0  0  0  0
    9.8190   38.2510   14.4130 C   0  0  0  0  0  0  0  0  0  0  0  0
   10.1190   39.0010   15.6720 C   0  0  0  0  0  0  0  0  0  0  0  0
    9.6360   40.1450   15.8190 O   0  0  0  0  0  0  0  0  0  0  0  0
   10.8540   38.5020   16.5510 O   0  0  0  0  0  1  0  0  0  0  0  0
   10.3620   38.6440   13.1710 N   0  0  0  0  0  0  0  0  0  0  0  0
   11.2780   39.7520   12.8870 C   0  0  0  0  0  0  0  0  0  0  0  0
   12.7010   39.3300   12.5000 C   0  0  0  0  0  0  0  0  0  0  0  0
   13.6060   38.8460   13.4770 C   0  0  0  0  0  0  0  0  0  0  0  0
   14.9110   38.4580   13.1270 C   0  0  0  0  0  0  0  0  0  0  0  0
   15.3360   38.5480   11.7920 C   0  0  0  0  0  0  0  0  0  0  0  0
   14.4560   39.0270   10.8030 C   0  0  0  0  0  0  0  0  0  0  0  0
   14.9000   39.1110    9.4670 C   0  0  0  0  0  0  0  0  0  0  0  0
   14.0380   39.5870    8.4620 C   0  0  0  0  0  0  0  0  0  0  0  0
   12.7290   39.9790    8.7920 C   0  0  0  0  0  0  0  0  0  0  0  0
   12.2800   39.8980   10.1240 C   0  0  0  0  0  0  0  0  0  0  0  0
   13.1340   39.4210   11.1490 C   0  0  0  0  0  0  0  0  0  0  0  0
    9.9010   37.7880   12.1790 C   0  0  0  0  0  0  0  0  0  0  0  0
   10.1290   37.7530   10.7870 C   0  0  0  0  0  0  0  0  0  0  0  0
    9.5310   36.7510   10.0050 C   0  0  0  0  0  0  0  0  0  0  0  0
    8.7110   35.7870   10.6150 C   0  0  0  0  0  0  0  0  0  0  0  0
    8.1350   34.8160    9.8660 F   0  0  0  0  0  0  0  0  0  0  0  0
    8.4850   35.8300   12.0040 C   0  0  0  0  0  0  0  0  0  0  0  0
    9.0680   36.8320   12.8180 C   0  0  0  0  0  0  0  0  0  0  0  0
   11.4405   32.9155   16.9089 H   0  0  0  0  0  0  0  0  0  0  0  0
   10.5350   32.8906   15.3577 H   0  0  0  0  0  0  0  0  0  0  0  0
   12.3217   32.7058   15.3577 H   0  0  0  0  0  0  0  0  0  0  0  0
   12.6553   35.0038   15.9982 H   0  0  0  0  0  0  0  0  0  0  0  0
   11.4191   35.0337   14.6977 H   0  0  0  0  0  0  0  0  0  0  0  0
    8.3484   33.0630   15.0998 H   0  0  0  0  0  0  0  0  0  0  0  0
    7.6618   34.2537   13.9433 H   0  0  0  0  0  0  0  0  0  0  0  0
    9.4261   33.9160   13.9433 H   0  0  0  0  0  0  0  0  0  0  0  0
    7.1618   36.2534   14.8047 H   0  0  0  0  0  0  0  0  0  0  0  0
    8.1378   36.9941   16.1463 H   0  0  0  0  0  0  0  0  0  0  0  0
   10.8578   40.3386   12.0568 H   0  0  0  0  0  0  0  0  0  0  0  0
   11.3693   40.3244   13.8219 H   0  0  0  0  0  0  0  0  0  0  0  0
   13.2823   38.7727   14.5257 H   0  0  0  0  0  0  0  0  0  0  0  0
   15.5993   38.0838   13.8992 H   0  0  0  0  0  0  0  0  0  0  0  0
   16.3572   38.2441   11.5186 H   0  0  0  0  0  0  0  0  0  0  0  0
   15.9242   38.8032    9.2097 H   0  0  0  0  0  0  0  0  0  0  0  0
   14.3874   39.6522    7.4210 H   0  0  0  0  0  0  0  0  0  0  0  0
   12.0534   40.3501    8.0072 H   0  0  0  0  0  0  0  0  0  0  0  0
   11.2543   40.2087   10.3717 H   0  0  0  0  0  0  0  0  0  0  0  0
   10.7738   38.5090   10.3151 H   0  0  0  0  0  0  0  0  0  0  0  0
    9.7041   36.7212    8.9191 H   0  0  0  0  0  0  0  0  0  0  0  0
    7.8411   35.0682   12.4676 H   0  0  0  0  0  0  0  0  0  0  0  0
  1  2  1  0
  2  3  1  0
  3  4  1  0
  4  5  2  0
  4  6  1  0
  6  7  1  0
  6  8  1  0
  8  9  1  0
  9 10  2  0
 10 11  1  0
 11 12  2  0
 11 13  1  0
 10 14  1  0
 14 15  1  0
 15 16  1  0
 16 17  2  0
 17 18  1  0
 18 19  2  0
 19 20  1  0
 20 21  2  0
 21 22  1  0
 22 23  2  0
 23 24  1  0
 24 25  2  0
 14 26  1  0
 26 27  2  0
 27 28  1  0
 28 29  2  0
 29 30  1  0
 29 31  1  0
 31 32  2  0
 32  9  1  0
 25 16  1  0
 32 26  1  0
 25 20  1  0
  1 33  1  0
  1 34  1  0
  1 35  1  0
  2 36  1  0
  2 37  1  0
  7 38  1  0
  7 39  1  0
  7 40  1  0
  8 41  1  0
  8 42  1  0
 15 43  1  0
 15 44  1  0
 17 45  1  0
 18 46  1  0
 19 47  1  0
 21 48  1  0
 22 49  1  0
 23 50  1  0
 24 51  1  0
 27 52  1  0
 28 53  1  0
 31 54  1  0
M  CHG  1  13  -1
M  END
>  <meeko>  (35) 
{"free_energy": -5.4, "intermolecular_energy": -7.78, "internal_energy": -1.9, "cluster_size": 251, "cluster_id": 26, "rank_in_cluster": 175}

$$$$

     RDKit          3D

 54 57  0  0  0  0  0  0  0  0999 V2000
    7.4650   38.4650    9.8500 C   0  0  0  0  0  0  0  0  0  0  0  0
    8.7450   39.1010    9.3030 C   0  0  0  0  0  0  0  0  0  0  0  0
    9.7090   38.0850    9.0710 O   0  0  0  0  0  0  0  0  0  0  0  0
    9.5400   36.8580    9.6080 C   0  0  0  0  0  0  0  0  0  0  0  0
    8.8350   35.9860    9.0960 O   0  0  0  0  0  0  0  0  0  0  0  0
   10.2730   36.7350   10.7950 N   0  0  0  0  0  0  0  0  0  0  0  0
   11.0930   35.5530   11.0870 C   0  0  0  0  0  0  0  0  0  0  0  0
   10.2340   37.7800   11.8260 C   0  0  0  0  0  0  0  0  0  0  0  0
   10.4510   37.2230   13.2140 C   0  0  0  0  0  0  0  0  0  0  0  0
    9.7690   36.2040   13.8550 C   0  0  0  0  0  0  0  0  0  0  0  0
    8.6530   35.3410   13.3550 C   0  0  0  0  0  0  0  0  0  0  0  0
    8.1380   35.6070   12.2480 O   0  0  0  0  0  0  0  0  0  0  0  0
    8.2320   34.3850   14.0420 O   0  0  0  0  0  1  0  0  0  0  0  0
   10.2770   36.0720   15.1650 N   0  0  0  0  0  0  0  0  0  0  0  0
    9.8730   35.1230   16.2060 C   0  0  0  0  0  0  0  0  0  0  0  0
    8.6530   35.5520   17.0320 C   0  0  0  0  0  0  0  0  0  0  0  0
    7.3390   35.2390   16.6020 C   0  0  0  0  0  0  0  0  0  0  0  0
    6.2190   35.6300   17.3550 C   0  0  0  0  0  0  0  0  0  0  0  0
    6.3910   36.3440   18.5520 C   0  0  0  0  0  0  0  0  0  0  0  0
    7.6860   36.6690   18.9990 C   0  0  0  0  0  0  0  0  0  0  0  0
    7.8400   37.3870   20.2030 C   0  0  0  0  0  0  0  0  0  0  0  0
    9.1240   37.7220   20.6680 C   0  0  0  0  0  0  0  0  0  0  0  0
   10.2580   37.3390   19.9300 C   0  0  0  0  0  0  0  0  0  0  0  0
   10.1110   36.6230   18.7270 C   0  0  0  0  0  0  0  0  0  0  0  0
    8.8250   36.2760   18.2430 C   0  0  0  0  0  0  0  0  0  0  0  0
   11.2840   37.0070   15.3620 C   0  0  0  0  0  0  0  0  0  0  0  0
   12.0910   37.2980   16.4820 C   0  0  0  0  0  0  0  0  0  0  0  0
   13.0600   38.3120   16.4030 C   0  0  0  0  0  0  0  0  0  0  0  0
   13.2200   39.0310   15.2060 C   0  0  0  0  0  0  0  0  0  0  0  0
   14.1550   40.0070   15.1220 F   0  0  0  0  0  0  0  0  0  0  0  0
   12.4080   38.7370   14.0930 C   0  0  0  0  0  0  0  0  0  0  0  0
   11.4190   37.7260   14.1440 C   0  0  0  0  0  0  0  0  0  0  0  0
    7.4903   38.4776   10.9496 H   0  0  0  0  0  0  0  0  0  0  0  0
    6.5927   39.0345    9.4968 H   0  0  0  0  0  0  0  0  0  0  0  0
    7.3920   37.4258    9.4968 H   0  0  0  0  0  0  0  0  0  0  0  0
    8.5234   39.6203    8.3590 H   0  0  0  0  0  0  0  0  0  0  0  0
    9.1388   39.8245   10.0320 H   0  0  0  0  0  0  0  0  0  0  0  0
   11.1802   35.4273   12.1763 H   0  0  0  0  0  0  0  0  0  0  0  0
   10.6187   34.6611   10.6518 H   0  0  0  0  0  0  0  0  0  0  0  0
   12.0946   35.6849   10.6518 H   0  0  0  0  0  0  0  0  0  0  0  0
   11.0224   38.5169   11.6131 H   0  0  0  0  0  0  0  0  0  0  0  0
    9.2359   38.2417   11.8003 H   0  0  0  0  0  0  0  0  0  0  0  0
    9.6377   34.1639   15.7215 H   0  0  0  0  0  0  0  0  0  0  0  0
   10.7158   35.0595   16.9100 H   0  0  0  0  0  0  0  0  0  0  0  0
    7.1940   34.6817   15.6648 H   0  0  0  0  0  0  0  0  0  0  0  0
    5.2068   35.3767   17.0067 H   0  0  0  0  0  0  0  0  0  0  0  0
    5.5135   36.6495   19.1407 H   0  0  0  0  0  0  0  0  0  0  0  0
    6.9527   37.6860   20.7803 H   0  0  0  0  0  0  0  0  0  0  0  0
    9.2411   38.2825   21.6072 H   0  0  0  0  0  0  0  0  0  0  0  0
   11.2628   37.5997   20.2938 H   0  0  0  0  0  0  0  0  0  0  0  0
   11.0043   36.3295   18.1562 H   0  0  0  0  0  0  0  0  0  0  0  0
   11.9616   36.7316   17.4160 H   0  0  0  0  0  0  0  0  0  0  0  0
   13.6908   38.5423   17.2742 H   0  0  0  0  0  0  0  0  0  0  0  0
   12.5459   39.3068   13.1622 H   0  0  0  0  0  0  0  0  0  0  0  0
  1  2  1  0
  2  3  1  0
  3  4  1  0
  4  5  2  0
  4  6  1  0
  6  7  1  0
  6  8  1  0
  8  9  1  0
  9 10  2  0
 10 11  1  0
 11 12  2  0
 11 13  1  0
 10 14  1  0
 14 15  1  0
 15 16  1  0
 16 17  2  0
 17 18  1  0
 18 19  2  0
 19 20  1  0
 20 21  2  0
 21 22  1  0
 22 23  2  0
 23 24  1  0
 24 25  2  0
 14 26  1  0
 26 27  2  0
 27 28  1  0
 28 29  2  0
 29 30  1  0
 29 31  1  0
 31 32  2  0
 32  9  1  0
 25 16  1  0
 32 26  1  0
 25 20  1  0
  1 33  1  0
  1 34  1  0
  1 35  1  0
  2 36  1  0
  2 37  1  0
  7 38  1  0
  7 39  1  0
  7 40  1  0
  8 41  1  0
  8 42  1  0
 15 43  1  0
 15 44  1  0
 17 45  1  0
 18 46  1  0
 19 47  1  0
 21 48  1  0
 22 49  1  0
 23 50  1  0
 24 51  1  0
 27 52  1  0
 28 53  1  0
 31 54  1  0
M  CHG  1  13  -1
M  END
>  <meeko>  (36) 
{"free_energy": -5.86, "intermolecular_energy": -8.24, "internal_energy": -1.62, "cluster_size": 136, "cluster_id": 23, "rank_in_cluster": 58}

$$$$

     RDKit          3D

 54 57  0  0  0  0  0  0  0  0999 V2000
   13.4630   38.6630   11.8380 C   0  0  0  0  0  0  0  0  0  0  0  0
   12.7240   38.5980   10.4990 C   0  0  0  0  0  0  0  0  0  0  0  0
   11.3860   38.1860   10.7240 O   0  0  0  0  0  0  0  0  0  0  0  0
   11.0500   36.8830   10.6060 C   0  0  0  0  0  0  0  0  0  0  0  0
   11.8790   35.9760   10.5060 O   0  0  0  0  0  0  0  0  0  0  0  0
    9.6580   36.7310   10.6200 N   0  0  0  0  0  0  0  0  0  0  0  0
    8.9430   35.9940    9.5720 C   0  0  0  0  0  0  0  0  0  0  0  0
    8.8370   37.3310   11.6800 C   0  0  0  0  0  0  0  0  0  0  0  0
    9.5780   37.4290   12.9920 C   0  0  0  0  0  0  0  0  0  0  0  0
    9.7900   36.4460   13.9430 C   0  0  0  0  0  0  0  0  0  0  0  0
    9.3820   35.0060   13.9340 C   0  0  0  0  0  0  0  0  0  0  0  0
    8.1910   34.7210   13.6850 O   0  0  0  0  0  0  0  0  0  0  0  0
   10.2130   34.1070   14.1880 O   0  0  0  0  0  1  0  0  0  0  0  0
   10.4790   37.0120   15.0360 N   0  0  0  0  0  0  0  0  0  0  0  0
   10.9280   36.3570   16.2680 C   0  0  0  0  0  0  0  0  0  0  0  0
   10.1530   36.7560   17.5310 C   0  0  0  0  0  0  0  0  0  0  0  0
   10.7130   37.6550   18.4720 C   0  0  0  0  0  0  0  0  0  0  0  0
   10.0070   38.0240   19.6300 C   0  0  0  0  0  0  0  0  0  0  0  0
    8.7270   37.4990   19.8690 C   0  0  0  0  0  0  0  0  0  0  0  0
    8.1490   36.6030   18.9490 C   0  0  0  0  0  0  0  0  0  0  0  0
    6.8630   36.0850   19.2060 C   0  0  0  0  0  0  0  0  0  0  0  0
    6.2670   35.1880   18.3010 C   0  0  0  0  0  0  0  0  0  0  0  0
    6.9570   34.8080   17.1370 C   0  0  0  0  0  0  0  0  0  0  0  0
    8.2420   35.3210   16.8750 C   0  0  0  0  0  0  0  0  0  0  0  0
    8.8570   36.2250   17.7750 C   0  0  0  0  0  0  0  0  0  0  0  0
   10.7090   38.3590   14.7850 C   0  0  0  0  0  0  0  0  0  0  0  0
   11.3350   39.3640   15.5500 C   0  0  0  0  0  0  0  0  0  0  0  0
   11.4400   40.6690   15.0410 C   0  0  0  0  0  0  0  0  0  0  0  0
   10.9210   40.9640   13.7680 C   0  0  0  0  0  0  0  0  0  0  0  0
   11.0220   42.2190   13.2700 F   0  0  0  0  0  0  0  0  0  0  0  0
   10.2930   39.9550   13.0120 C   0  0  0  0  0  0  0  0  0  0  0  0
   10.1660   38.6330   13.5010 C   0  0  0  0  0  0  0  0  0  0  0  0
   12.7363   38.5991   12.6613 H   0  0  0  0  0  0  0  0  0  0  0  0
   14.1705   37.8236   11.9074 H   0  0  0  0  0  0  0  0  0  0  0  0
   14.0132   39.6130   11.9074 H   0  0  0  0  0  0  0  0  0  0  0  0
   12.7285   39.5919   10.0277 H   0  0  0  0  0  0  0  0  0  0  0  0
   13.2253   37.8785    9.8349 H   0  0  0  0  0  0  0  0  0  0  0  0
    8.2485   35.2781   10.0359 H   0  0  0  0  0  0  0  0  0  0  0  0
    8.3776   36.7010    8.9472 H   0  0  0  0  0  0  0  0  0  0  0  0
    9.6669   35.4503    8.9472 H   0  0  0  0  0  0  0  0  0  0  0  0
    8.5378   38.3420   11.3663 H   0  0  0  0  0  0  0  0  0  0  0  0
    7.9616   36.6832   11.8353 H   0  0  0  0  0  0  0  0  0  0  0  0
   10.8263   35.2700   16.1337 H   0  0  0  0  0  0  0  0  0  0  0  0
   11.9671   36.6804   16.4284 H   0  0  0  0  0  0  0  0  0  0  0  0
   11.7157   38.0706   18.2936 H   0  0  0  0  0  0  0  0  0  0  0  0
   10.4574   38.7241   20.3490 H   0  0  0  0  0  0  0  0  0  0  0  0
    8.1751   37.7878   20.7757 H   0  0  0  0  0  0  0  0  0  0  0  0
    6.3240   36.3833   20.1173 H   0  0  0  0  0  0  0  0  0  0  0  0
    5.2637   34.7851   18.5038 H   0  0  0  0  0  0  0  0  0  0  0  0
    6.4916   34.1074   16.4281 H   0  0  0  0  0  0  0  0  0  0  0  0
    8.7737   35.0163   15.9615 H   0  0  0  0  0  0  0  0  0  0  0  0
   11.7408   39.1266   16.5445 H   0  0  0  0  0  0  0  0  0  0  0  0
   11.9260   41.4565   15.6356 H   0  0  0  0  0  0  0  0  0  0  0  0
    9.8916   40.2004   12.0177 H   0  0  0  0  0  0  0  0  0  0  0  0
  1  2  1  0
  2  3  1  0
  3  4  1  0
  4  5  2  0
  4  6  1  0
  6  7  1  0
  6  8  1  0
  8  9  1  0
  9 10  2  0
 10 11  1  0
 11 12  2  0
 11 13  1  0
 10 14  1  0
 14 15  1  0
 15 16  1  0
 16 17  2  0
 17 18  1  0
 18 19  2  0
 19 20  1  0
 20 21  2  0
 21 22  1  0
 22 23  2  0
 23 24  1  0
 24 25  2  0
 14 26  1  0
 26 27  2  0
 27 28  1  0
 28 29  2  0
 29 30  1  0
 29 31  1  0
 31 32  2  0
 32  9  1  0
 25 16  1  0
 32 26  1  0
 25 20  1  0
  1 33  1  0
  1 34  1  0
  1 35  1  0
  2 36  1  0
  2 37  1  0
  7 38  1  0
  7 39  1  0
  7 40  1  0
  8 41  1  0
  8 42  1  0
 15 43  1  0
 15 44  1  0
 17 45  1  0
 18 46  1  0
 19 47  1  0
 21 48  1  0
 22 49  1  0
 23 50  1  0
 24 51  1  0
 27 52  1  0
 28 53  1  0
 31 54  1  0
M  CHG  1  13  -1
M  END
>  <meeko>  (37) 
{"free_energy": -5.25, "intermolecular_energy": -7.63, "internal_energy": -2.39, "cluster_size": 136, "cluster_id": 23, "rank_in_cluster": 104}

$$$$

     RDKit          3D

 54 57  0  0  0  0  0  0  0  0999 V2000
    9.6160   33.2460   17.2920 C   0  0  0  0  0  0  0  0  0  0  0  0
    8.8840   34.5600   17.5750 C   0  0  0  0  0  0  0  0  0  0  0  0
    9.2420   35.5150   16.5890 O   0  0  0  0  0  0  0  0  0  0  0  0
    8.4310   35.7330   15.5320 C   0  0  0  0  0  0  0  0  0  0  0  0
    7.3460   36.3110   15.6190 O   0  0  0  0  0  0  0  0  0  0  0  0
    9.0020   35.2220   14.3600 N   0  0  0  0  0  0  0  0  0  0  0  0
   10.1900   34.3610   14.3820 C   0  0  0  0  0  0  0  0  0  0  0  0
    8.4510   35.5490   13.0380 C   0  0  0  0  0  0  0  0  0  0  0  0
    9.1150   36.7610   12.4260 C   0  0  0  0  0  0  0  0  0  0  0  0
    9.9920   37.6570   13.0110 C   0  0  0  0  0  0  0  0  0  0  0  0
   10.5630   37.6680   14.3940 C   0  0  0  0  0  0  0  0  0  0  0  0
   11.5430   36.9350   14.6450 O   0  0  0  0  0  0  0  0  0  0  0  0
   10.0560   38.3830   15.2860 O   0  0  0  0  0  1  0  0  0  0  0  0
   10.3010   38.6670   12.0750 N   0  0  0  0  0  0  0  0  0  0  0  0
   11.1920   39.8190   12.2400 C   0  0  0  0  0  0  0  0  0  0  0  0
   12.6130   39.6180   11.6950 C   0  0  0  0  0  0  0  0  0  0  0  0
   12.8740   39.6920   10.3040 C   0  0  0  0  0  0  0  0  0  0  0  0
   14.1740   39.5100    9.8010 C   0  0  0  0  0  0  0  0  0  0  0  0
   15.2370   39.2470   10.6800 C   0  0  0  0  0  0  0  0  0  0  0  0
   15.0020   39.1660   12.0660 C   0  0  0  0  0  0  0  0  0  0  0  0
   16.0820   38.9010   12.9340 C   0  0  0  0  0  0  0  0  0  0  0  0
   15.8710   38.8160   14.3210 C   0  0  0  0  0  0  0  0  0  0  0  0
   14.5780   38.9970   14.8450 C   0  0  0  0  0  0  0  0  0  0  0  0
   13.4960   39.2620   13.9830 C   0  0  0  0  0  0  0  0  0  0  0  0
   13.6910   39.3510   12.5830 C   0  0  0  0  0  0  0  0  0  0  0  0
    9.6200   38.4170   10.8910 C   0  0  0  0  0  0  0  0  0  0  0  0
    9.5720   39.1190    9.6690 C   0  0  0  0  0  0  0  0  0  0  0  0
    8.7920   38.6280    8.6090 C   0  0  0  0  0  0  0  0  0  0  0  0
    8.0630   37.4370    8.7740 C   0  0  0  0  0  0  0  0  0  0  0  0
    7.3120   36.9570    7.7540 F   0  0  0  0  0  0  0  0  0  0  0  0
    8.1130   36.7440    9.9980 C   0  0  0  0  0  0  0  0  0  0  0  0
    8.8850   37.2180   11.0870 C   0  0  0  0  0  0  0  0  0  0  0  0
    9.8847   32.7637   18.2434 H   0  0  0  0  0  0  0  0  0  0  0  0
    8.9601   32.5779   16.7146 H   0  0  0  0  0  0  0  0  0  0  0  0
   10.5293   33.4521   16.7146 H   0  0  0  0  0  0  0  0  0  0  0  0
    7.7977   34.3898   17.5451 H   0  0  0  0  0  0  0  0  0  0  0  0
    9.1660   34.9332   18.5706 H   0  0  0  0  0  0  0  0  0  0  0  0
   10.4743   34.1550   15.4245 H   0  0  0  0  0  0  0  0  0  0  0  0
    9.9661   33.4141   13.8690 H   0  0  0  0  0  0  0  0  0  0  0  0
   11.0202   34.8685   13.8690 H   0  0  0  0  0  0  0  0  0  0  0  0
    8.5999   34.6882   12.3695 H   0  0  0  0  0  0  0  0  0  0  0  0
    7.3825   35.7776   13.1649 H   0  0  0  0  0  0  0  0  0  0  0  0
   10.7431   40.6763   11.7170 H   0  0  0  0  0  0  0  0  0  0  0  0
   11.2958   39.9771   13.3236 H   0  0  0  0  0  0  0  0  0  0  0  0
   12.0470   39.8949    9.6076 H   0  0  0  0  0  0  0  0  0  0  0  0
   14.3586   39.5736    8.7185 H   0  0  0  0  0  0  0  0  0  0  0  0
   16.2539   39.1042   10.2856 H   0  0  0  0  0  0  0  0  0  0  0  0
   17.0929   38.7604   12.5238 H   0  0  0  0  0  0  0  0  0  0  0  0
   16.7150   38.6084   14.9953 H   0  0  0  0  0  0  0  0  0  0  0  0
   14.4116   38.9314   15.9304 H   0  0  0  0  0  0  0  0  0  0  0  0
   12.4884   39.4014   14.4018 H   0  0  0  0  0  0  0  0  0  0  0  0
   10.1447   40.0501    9.5460 H   0  0  0  0  0  0  0  0  0  0  0  0
    8.7517   39.1727    7.6542 H   0  0  0  0  0  0  0  0  0  0  0  0
    7.5391   35.8125   10.1116 H   0  0  0  0  0  0  0  0  0  0  0  0
  1  2  1  0
  2  3  1  0
  3  4  1  0
  4  5  2  0
  4  6  1  0
  6  7  1  0
  6  8  1  0
  8  9  1  0
  9 10  2  0
 10 11  1  0
 11 12  2  0
 11 13  1  0
 10 14  1  0
 14 15  1  0
 15 16  1  0
 16 17  2  0
 17 18  1  0
 18 19  2  0
 19 20  1  0
 20 21  2  0
 21 22  1  0
 22 23  2  0
 23 24  1  0
 24 25  2  0
 14 26  1  0
 26 27  2  0
 27 28  1  0
 28 29  2  0
 29 30  1  0
 29 31  1  0
 31 32  2  0
 32  9  1  0
 25 16  1  0
 32 26  1  0
 25 20  1  0
  1 33  1  0
  1 34  1  0
  1 35  1  0
  2 36  1  0
  2 37  1  0
  7 38  1  0
  7 39  1  0
  7 40  1  0
  8 41  1  0
  8 42  1  0
 15 43  1  0
 15 44  1  0
 17 45  1  0
 18 46  1  0
 19 47  1  0
 21 48  1  0
 22 49  1  0
 23 50  1  0
 24 51  1  0
 27 52  1  0
 28 53  1  0
 31 54  1  0
M  CHG  1  13  -1
M  END
>  <meeko>  (38) 
{"free_energy": -5.15, "intermolecular_energy": -7.53, "internal_energy": -1.61, "cluster_size": 84, "cluster_id": 58, "rank_in_cluster": 58}

$$$$

     RDKit          3D

 54 57  0  0  0  0  0  0  0  0999 V2000
   16.0160   40.2760    8.4840 C   0  0  0  0  0  0  0  0  0  0  0  0
   14.9620   39.1760    8.6420 C   0  0  0  0  0  0  0  0  0  0  0  0
   15.4850   38.1430    9.4610 O   0  0  0  0  0  0  0  0  0  0  0  0
   14.7760   37.6950   10.5190 C   0  0  0  0  0  0  0  0  0  0  0  0
   14.0520   36.6990   10.4780 O   0  0  0  0  0  0  0  0  0  0  0  0
   14.9930   38.5120   11.6370 N   0  0  0  0  0  0  0  0  0  0  0  0
   16.0010   38.1920   12.6530 C   0  0  0  0  0  0  0  0  0  0  0  0
   14.1930   39.7240   11.8610 C   0  0  0  0  0  0  0  0  0  0  0  0
   12.7170   39.4230   11.9740 C   0  0  0  0  0  0  0  0  0  0  0  0
   11.7490   39.4510   10.9850 C   0  0  0  0  0  0  0  0  0  0  0  0
   11.8850   39.7500    9.5260 C   0  0  0  0  0  0  0  0  0  0  0  0
   12.1930   40.9100    9.1770 O   0  0  0  0  0  0  0  0  0  0  0  0
   11.6750   38.8610    8.6720 O   0  0  0  0  0  1  0  0  0  0  0  0
   10.4970   39.1600   11.5680 N   0  0  0  0  0  0  0  0  0  0  0  0
    9.1880   39.0680   10.9140 C   0  0  0  0  0  0  0  0  0  0  0  0
    8.9560   37.7780   10.1160 C   0  0  0  0  0  0  0  0  0  0  0  0
    9.4080   36.5280   10.6080 C   0  0  0  0  0  0  0  0  0  0  0  0
    9.1970   35.3440    9.8800 C   0  0  0  0  0  0  0  0  0  0  0  0
    8.5310   35.3890    8.6450 C   0  0  0  0  0  0  0  0  0  0  0  0
    8.0740   36.6180    8.1330 C   0  0  0  0  0  0  0  0  0  0  0  0
    7.4080   36.6440    6.8910 C   0  0  0  0  0  0  0  0  0  0  0  0
    6.9440   37.8610    6.3600 C   0  0  0  0  0  0  0  0  0  0  0  0
    7.1440   39.0560    7.0740 C   0  0  0  0  0  0  0  0  0  0  0  0
    7.8090   39.0370    8.3150 C   0  0  0  0  0  0  0  0  0  0  0  0
    8.2830   37.8200    8.8640 C   0  0  0  0  0  0  0  0  0  0  0  0
   10.6640   38.9460   12.9300 C   0  0  0  0  0  0  0  0  0  0  0  0
    9.7430   38.6430   13.9530 C   0  0  0  0  0  0  0  0  0  0  0  0
   10.1930   38.4660   15.2720 C   0  0  0  0  0  0  0  0  0  0  0  0
   11.5630   38.5920   15.5630 C   0  0  0  0  0  0  0  0  0  0  0  0
   12.0040   38.4190   16.8310 F   0  0  0  0  0  0  0  0  0  0  0  0
   12.4760   38.8990   14.5360 C   0  0  0  0  0  0  0  0  0  0  0  0
   12.0510   39.0890   13.1990 C   0  0  0  0  0  0  0  0  0  0  0  0
   16.3423   40.6166    9.4777 H   0  0  0  0  0  0  0  0  0  0  0  0
   16.8798   39.8793    7.9304 H   0  0  0  0  0  0  0  0  0  0  0  0
   15.5828   41.1221    7.9304 H   0  0  0  0  0  0  0  0  0  0  0  0
   14.0596   39.5957    9.1106 H   0  0  0  0  0  0  0  0  0  0  0  0
   14.7023   38.7684    7.6539 H   0  0  0  0  0  0  0  0  0  0  0  0
   15.5682   38.3294   13.6549 H   0  0  0  0  0  0  0  0  0  0  0  0
   16.3237   37.1473   12.5331 H   0  0  0  0  0  0  0  0  0  0  0  0
   16.8672   38.8593   12.5331 H   0  0  0  0  0  0  0  0  0  0  0  0
   14.5289   40.2026   12.7927 H   0  0  0  0  0  0  0  0  0  0  0  0
   14.3362   40.3870   10.9950 H   0  0  0  0  0  0  0  0  0  0  0  0
    8.4120   39.1339   11.6909 H   0  0  0  0  0  0  0  0  0  0  0  0
    9.1464   39.8929   10.1875 H   0  0  0  0  0  0  0  0  0  0  0  0
    9.9319   36.4836   11.5742 H   0  0  0  0  0  0  0  0  0  0  0  0
    9.5537   34.3825   10.2780 H   0  0  0  0  0  0  0  0  0  0  0  0
    8.3659   34.4620    8.0763 H   0  0  0  0  0  0  0  0  0  0  0  0
    7.2504   35.7083    6.3345 H   0  0  0  0  0  0  0  0  0  0  0  0
    6.4264   37.8780    5.3895 H   0  0  0  0  0  0  0  0  0  0  0  0
    6.7798   40.0085    6.6617 H   0  0  0  0  0  0  0  0  0  0  0  0
    7.9622   39.9776    8.8644 H   0  0  0  0  0  0  0  0  0  0  0  0
    8.6727   38.5452   13.7188 H   0  0  0  0  0  0  0  0  0  0  0  0
    9.4772   38.2300   16.0732 H   0  0  0  0  0  0  0  0  0  0  0  0
   13.5448   38.9934   14.7782 H   0  0  0  0  0  0  0  0  0  0  0  0
  1  2  1  0
  2  3  1  0
  3  4  1  0
  4  5  2  0
  4  6  1  0
  6  7  1  0
  6  8  1  0
  8  9  1  0
  9 10  2  0
 10 11  1  0
 11 12  2  0
 11 13  1  0
 10 14  1  0
 14 15  1  0
 15 16  1  0
 16 17  2  0
 17 18  1  0
 18 19  2  0
 19 20  1  0
 20 21  2  0
 21 22  1  0
 22 23  2  0
 23 24  1  0
 24 25  2  0
 14 26  1  0
 26 27  2  0
 27 28  1  0
 28 29  2  0
 29 30  1  0
 29 31  1  0
 31 32  2  0
 32  9  1  0
 25 16  1  0
 32 26  1  0
 25 20  1  0
  1 33  1  0
  1 34  1  0
  1 35  1  0
  2 36  1  0
  2 37  1  0
  7 38  1  0
  7 39  1  0
  7 40  1  0
  8 41  1  0
  8 42  1  0
 15 43  1  0
 15 44  1  0
 17 45  1  0
 18 46  1  0
 19 47  1  0
 21 48  1  0
 22 49  1  0
 23 50  1  0
 24 51  1  0
 27 52  1  0
 28 53  1  0
 31 54  1  0
M  CHG  1  13  -1
M  END
>  <meeko>  (39) 
{"free_energy": -6.87, "intermolecular_energy": -9.25, "internal_energy": -2.24, "cluster_size": 292, "cluster_id": 10, "rank_in_cluster": 27}

$$$$

     RDKit          3D

 54 57  0  0  0  0  0  0  0  0999 V2000
    9.0850   34.0150   16.6180 C   0  0  0  0  0  0  0  0  0  0  0  0
    9.4880   33.7990   15.1580 C   0  0  0  0  0  0  0  0  0  0  0  0
    8.4960   34.3570   14.3120 O   0  0  0  0  0  0  0  0  0  0  0  0
    8.6070   35.6350   13.8900 C   0  0  0  0  0  0  0  0  0  0  0  0
    8.5850   36.6040   14.6500 O   0  0  0  0  0  0  0  0  0  0  0  0
    8.7550   35.6810   12.4970 N   0  0  0  0  0  0  0  0  0  0  0  0
    7.7430   35.1320   11.5870 C   0  0  0  0  0  0  0  0  0  0  0  0
    9.9530   36.2610   11.8770 C   0  0  0  0  0  0  0  0  0  0  0  0
    9.6530   37.5490   11.1460 C   0  0  0  0  0  0  0  0  0  0  0  0
    9.9550   38.8470   11.5180 C   0  0  0  0  0  0  0  0  0  0  0  0
   10.6900   39.3480   12.7220 C   0  0  0  0  0  0  0  0  0  0  0  0
   11.9390   39.3180   12.7170 O   0  0  0  0  0  0  0  0  0  0  0  0
   10.0650   39.7700   13.7190 O   0  0  0  0  0  1  0  0  0  0  0  0
    9.4220   39.7310   10.5560 N   0  0  0  0  0  0  0  0  0  0  0  0
    9.5000   41.1940   10.5220 C   0  0  0  0  0  0  0  0  0  0  0  0
   10.8610   41.7780   10.9260 C   0  0  0  0  0  0  0  0  0  0  0  0
   10.9540   42.7770   11.9260 C   0  0  0  0  0  0  0  0  0  0  0  0
   12.1980   43.3140   12.2990 C   0  0  0  0  0  0  0  0  0  0  0  0
   13.3730   42.8630   11.6760 C   0  0  0  0  0  0  0  0  0  0  0  0
   13.3060   41.8720   10.6790 C   0  0  0  0  0  0  0  0  0  0  0  0
   14.4960   41.4310   10.0640 C   0  0  0  0  0  0  0  0  0  0  0  0
   14.4540   40.4420    9.0640 C   0  0  0  0  0  0  0  0  0  0  0  0
   13.2180   39.8920    8.6780 C   0  0  0  0  0  0  0  0  0  0  0  0
   12.0270   40.3280    9.2880 C   0  0  0  0  0  0  0  0  0  0  0  0
   12.0520   41.3230   10.2960 C   0  0  0  0  0  0  0  0  0  0  0  0
    8.7790   38.9980    9.5680 C   0  0  0  0  0  0  0  0  0  0  0  0
    8.0810   39.3940    8.4080 C   0  0  0  0  0  0  0  0  0  0  0  0
    7.5230   38.4230    7.5600 C   0  0  0  0  0  0  0  0  0  0  0  0
    7.6660   37.0600    7.8730 C   0  0  0  0  0  0  0  0  0  0  0  0
    7.1340   36.1190    7.0570 F   0  0  0  0  0  0  0  0  0  0  0  0
    8.3610   36.6720    9.0350 C   0  0  0  0  0  0  0  0  0  0  0  0
    8.9280   37.6280    9.9120 C   0  0  0  0  0  0  0  0  0  0  0  0
    9.8607   33.5992   17.2779 H   0  0  0  0  0  0  0  0  0  0  0  0
    8.9766   35.0921   16.8129 H   0  0  0  0  0  0  0  0  0  0  0  0
    8.1280   33.5089   16.8129 H   0  0  0  0  0  0  0  0  0  0  0  0
   10.4534   34.2903   14.9665 H   0  0  0  0  0  0  0  0  0  0  0  0
    9.5816   32.7217   14.9564 H   0  0  0  0  0  0  0  0  0  0  0  0
    6.9249   34.6882   12.1733 H   0  0  0  0  0  0  0  0  0  0  0  0
    7.3445   35.9376   10.9528 H   0  0  0  0  0  0  0  0  0  0  0  0
    8.2011   34.3587   10.9528 H   0  0  0  0  0  0  0  0  0  0  0  0
   10.6949   36.4648   12.6631 H   0  0  0  0  0  0  0  0  0  0  0  0
   10.3356   35.5377   11.1419 H   0  0  0  0  0  0  0  0  0  0  0  0
    9.2771   41.5244    9.4967 H   0  0  0  0  0  0  0  0  0  0  0  0
    8.7749   41.5590   11.2643 H   0  0  0  0  0  0  0  0  0  0  0  0
   10.0387   43.1379   12.4180 H   0  0  0  0  0  0  0  0  0  0  0  0
   12.2513   44.0877   13.0791 H   0  0  0  0  0  0  0  0  0  0  0  0
   14.3463   43.2846   11.9675 H   0  0  0  0  0  0  0  0  0  0  0  0
   15.4614   41.8621   10.3674 H   0  0  0  0  0  0  0  0  0  0  0  0
   15.3839   40.1002    8.5860 H   0  0  0  0  0  0  0  0  0  0  0  0
   13.1823   39.1185    7.8967 H   0  0  0  0  0  0  0  0  0  0  0  0
   11.0660   39.8913    8.9786 H   0  0  0  0  0  0  0  0  0  0  0  0
    7.9737   40.4621    8.1677 H   0  0  0  0  0  0  0  0  0  0  0  0
    6.9767   38.7278    6.6552 H   0  0  0  0  0  0  0  0  0  0  0  0
    8.4657   35.6017    9.2664 H   0  0  0  0  0  0  0  0  0  0  0  0
  1  2  1  0
  2  3  1  0
  3  4  1  0
  4  5  2  0
  4  6  1  0
  6  7  1  0
  6  8  1  0
  8  9  1  0
  9 10  2  0
 10 11  1  0
 11 12  2  0
 11 13  1  0
 10 14  1  0
 14 15  1  0
 15 16  1  0
 16 17  2  0
 17 18  1  0
 18 19  2  0
 19 20  1  0
 20 21  2  0
 21 22  1  0
 22 23  2  0
 23 24  1  0
 24 25  2  0
 14 26  1  0
 26 27  2  0
 27 28  1  0
 28 29  2  0
 29 30  1  0
 29 31  1  0
 31 32  2  0
 32  9  1  0
 25 16  1  0
 32 26  1  0
 25 20  1  0
  1 33  1  0
  1 34  1  0
  1 35  1  0
  2 36  1  0
  2 37  1  0
  7 38  1  0
  7 39  1  0
  7 40  1  0
  8 41  1  0
  8 42  1  0
 15 43  1  0
 15 44  1  0
 17 45  1  0
 18 46  1  0
 19 47  1  0
 21 48  1  0
 22 49  1  0
 23 50  1  0
 24 51  1  0
 27 52  1  0
 28 53  1  0
 31 54  1  0
M  CHG  1  13  -1
M  END
>  <meeko>  (40) 
{"free_energy": -6.32, "intermolecular_energy": -8.7, "internal_energy": -1.85, "cluster_size": 318, "cluster_id": 5, "rank_in_cluster": 87}

$$$$

     RDKit          3D

 54 57  0  0  0  0  0  0  0  0999 V2000
    5.8910   35.0550   17.5130 C   0  0  0  0  0  0  0  0  0  0  0  0
    7.2570   35.2870   18.1640 C   0  0  0  0  0  0  0  0  0  0  0  0
    8.2450   34.5670   17.4450 O   0  0  0  0  0  0  0  0  0  0  0  0
    8.5880   34.9520   16.1970 C   0  0  0  0  0  0  0  0  0  0  0  0
    8.0940   34.4660   15.1780 O   0  0  0  0  0  0  0  0  0  0  0  0
    9.5580   35.9620   16.2430 N   0  0  0  0  0  0  0  0  0  0  0  0
    9.3720   37.1860   17.0290 C   0  0  0  0  0  0  0  0  0  0  0  0
   10.8060   35.8550   15.4760 C   0  0  0  0  0  0  0  0  0  0  0  0
   10.8660   36.8480   14.3390 C   0  0  0  0  0  0  0  0  0  0  0  0
   11.6160   38.0060   14.2390 C   0  0  0  0  0  0  0  0  0  0  0  0
   12.6030   38.5900   15.2000 C   0  0  0  0  0  0  0  0  0  0  0  0
   13.7400   38.0780   15.2780 O   0  0  0  0  0  0  0  0  0  0  0  0
   12.2880   39.5590   15.9250 O   0  0  0  0  0  1  0  0  0  0  0  0
   11.3000   38.6490   13.0230 N   0  0  0  0  0  0  0  0  0  0  0  0
   11.8490   39.8950   12.4820 C   0  0  0  0  0  0  0  0  0  0  0  0
   12.6590   39.7360   11.1890 C   0  0  0  0  0  0  0  0  0  0  0  0
   12.1310   40.1620    9.9440 C   0  0  0  0  0  0  0  0  0  0  0  0
   12.8700   40.0180    8.7570 C   0  0  0  0  0  0  0  0  0  0  0  0
   14.1510   39.4430    8.7920 C   0  0  0  0  0  0  0  0  0  0  0  0
   14.6960   39.0110   10.0160 C   0  0  0  0  0  0  0  0  0  0  0  0
   15.9840   38.4360   10.0330 C   0  0  0  0  0  0  0  0  0  0  0  0
   16.5490   37.9970   11.2430 C   0  0  0  0  0  0  0  0  0  0  0  0
   15.8260   38.1330   12.4420 C   0  0  0  0  0  0  0  0  0  0  0  0
   14.5390   38.7060   12.4320 C   0  0  0  0  0  0  0  0  0  0  0  0
   13.9560   39.1540   11.2210 C   0  0  0  0  0  0  0  0  0  0  0  0
   10.3460   37.9010   12.3440 C   0  0  0  0  0  0  0  0  0  0  0  0
    9.6930   38.1060   11.1120 C   0  0  0  0  0  0  0  0  0  0  0  0
    8.7580   37.1650   10.6490 C   0  0  0  0  0  0  0  0  0  0  0  0
    8.4800   36.0230   11.4190 C   0  0  0  0  0  0  0  0  0  0  0  0
    7.5820   35.1100   10.9760 F   0  0  0  0  0  0  0  0  0  0  0  0
    9.1330   35.8260   12.6510 C   0  0  0  0  0  0  0  0  0  0  0  0
   10.0760   36.7600   13.1460 C   0  0  0  0  0  0  0  0  0  0  0  0
    5.1290   34.9256   18.2957 H   0  0  0  0  0  0  0  0  0  0  0  0
    5.6308   35.9218   16.8878 H   0  0  0  0  0  0  0  0  0  0  0  0
    5.9316   34.1509   16.8878 H   0  0  0  0  0  0  0  0  0  0  0  0
    7.4965   36.3604   18.1438 H   0  0  0  0  0  0  0  0  0  0  0  0
    7.2328   34.9394   19.2074 H   0  0  0  0  0  0  0  0  0  0  0  0
    9.4090   36.9425   18.1011 H   0  0  0  0  0  0  0  0  0  0  0  0
   10.1717   37.9017   16.7878 H   0  0  0  0  0  0  0  0  0  0  0  0
    8.3958   37.6319   16.7878 H   0  0  0  0  0  0  0  0  0  0  0  0
   11.6539   36.0395   16.1521 H   0  0  0  0  0  0  0  0  0  0  0  0
   10.8501   34.8445   15.0435 H   0  0  0  0  0  0  0  0  0  0  0  0
   11.0109   40.5777   12.2784 H   0  0  0  0  0  0  0  0  0  0  0  0
   12.5487   40.2783   13.2393 H   0  0  0  0  0  0  0  0  0  0  0  0
   11.1279   40.6120    9.9064 H   0  0  0  0  0  0  0  0  0  0  0  0
   12.4449   40.3558    7.8003 H   0  0  0  0  0  0  0  0  0  0  0  0
   14.7286   39.3302    7.8627 H   0  0  0  0  0  0  0  0  0  0  0  0
   16.5489   38.3306    9.0950 H   0  0  0  0  0  0  0  0  0  0  0  0
   17.5534   37.5485   11.2522 H   0  0  0  0  0  0  0  0  0  0  0  0
   16.2667   37.7910   13.3900 H   0  0  0  0  0  0  0  0  0  0  0  0
   13.9808   38.8066   13.3745 H   0  0  0  0  0  0  0  0  0  0  0  0
    9.9151   39.0018   10.5135 H   0  0  0  0  0  0  0  0  0  0  0  0
    8.2460   37.3216    9.6881 H   0  0  0  0  0  0  0  0  0  0  0  0
    8.9057   34.9267   13.2422 H   0  0  0  0  0  0  0  0  0  0  0  0
  1  2  1  0
  2  3  1  0
  3  4  1  0
  4  5  2  0
  4  6  1  0
  6  7  1  0
  6  8  1  0
  8  9  1  0
  9 10  2  0
 10 11  1  0
 11 12  2  0
 11 13  1  0
 10 14  1  0
 14 15  1  0
 15 16  1  0
 16 17  2  0
 17 18  1  0
 18 19  2  0
 19 20  1  0
 20 21  2  0
 21 22  1  0
 22 23  2  0
 23 24  1  0
 24 25  2  0
 14 26  1  0
 26 27  2  0
 27 28  1  0
 28 29  2  0
 29 30  1  0
 29 31  1  0
 31 32  2  0
 32  9  1  0
 25 16  1  0
 32 26  1  0
 25 20  1  0
  1 33  1  0
  1 34  1  0
  1 35  1  0
  2 36  1  0
  2 37  1  0
  7 38  1  0
  7 39  1  0
  7 40  1  0
  8 41  1  0
  8 42  1  0
 15 43  1  0
 15 44  1  0
 17 45  1  0
 18 46  1  0
 19 47  1  0
 21 48  1  0
 22 49  1  0
 23 50  1  0
 24 51  1  0
 27 52  1  0
 28 53  1  0
 31 54  1  0
M  CHG  1  13  -1
M  END
>  <meeko>  (41) 
{"free_energy": -5.73, "intermolecular_energy": -8.12, "internal_energy": -1.93, "cluster_size": 84, "cluster_id": 58, "rank_in_cluster": 17}

$$$$

     RDKit          3D

 54 57  0  0  0  0  0  0  0  0999 V2000
   10.0120   40.2490    9.5250 C   0  0  0  0  0  0  0  0  0  0  0  0
    8.5230   40.1960    9.8760 C   0  0  0  0  0  0  0  0  0  0  0  0
    8.3250   39.2680   10.9310 O   0  0  0  0  0  0  0  0  0  0  0  0
    9.1990   38.2550   11.1140 C   0  0  0  0  0  0  0  0  0  0  0  0
    9.2410   37.2580   10.3920 O   0  0  0  0  0  0  0  0  0  0  0  0
   10.0260   38.5130   12.2140 N   0  0  0  0  0  0  0  0  0  0  0  0
    9.9740   39.7820   12.9500 C   0  0  0  0  0  0  0  0  0  0  0  0
   11.0150   37.5280   12.6710 C   0  0  0  0  0  0  0  0  0  0  0  0
   10.7810   37.1030   14.1020 C   0  0  0  0  0  0  0  0  0  0  0  0
    9.8300   36.2310   14.6030 C   0  0  0  0  0  0  0  0  0  0  0  0
    8.7910   35.4350   13.8790 C   0  0  0  0  0  0  0  0  0  0  0  0
    8.5510   35.7080   12.6830 O   0  0  0  0  0  0  0  0  0  0  0  0
    8.1610   34.5280   14.4650 O   0  0  0  0  0  1  0  0  0  0  0  0
    9.9480   36.1900   16.0090 N   0  0  0  0  0  0  0  0  0  0  0  0
    9.1640   35.4020   16.9650 C   0  0  0  0  0  0  0  0  0  0  0  0
    7.8400   36.0460   17.3990 C   0  0  0  0  0  0  0  0  0  0  0  0
    6.6650   35.8810   16.6240 C   0  0  0  0  0  0  0  0  0  0  0  0
    5.4500   36.4680   17.0180 C   0  0  0  0  0  0  0  0  0  0  0  0
    5.3890   37.2340   18.1930 C   0  0  0  0  0  0  0  0  0  0  0  0
    6.5430   37.4140   18.9790 C   0  0  0  0  0  0  0  0  0  0  0  0
    6.4630   38.1870   20.1560 C   0  0  0  0  0  0  0  0  0  0  0  0
    7.6030   38.3800   20.9560 C   0  0  0  0  0  0  0  0  0  0  0  0
    8.8280   37.8000   20.5800 C   0  0  0  0  0  0  0  0  0  0  0  0
    8.9150   37.0280   19.4050 C   0  0  0  0  0  0  0  0  0  0  0  0
    7.7750   36.8220   18.5880 C   0  0  0  0  0  0  0  0  0  0  0  0
   10.9740   37.0360   16.4080 C   0  0  0  0  0  0  0  0  0  0  0  0
   11.4800   37.3630   17.6820 C   0  0  0  0  0  0  0  0  0  0  0  0
   12.5540   38.2620   17.8010 C   0  0  0  0  0  0  0  0  0  0  0  0
   13.1170   38.8290   16.6450 C   0  0  0  0  0  0  0  0  0  0  0  0
   14.1550   39.6940   16.7510 F   0  0  0  0  0  0  0  0  0  0  0  0
   12.6040   38.5010   15.3750 C   0  0  0  0  0  0  0  0  0  0  0  0
   11.5190   37.6040   15.2250 C   0  0  0  0  0  0  0  0  0  0  0  0
   10.6063   40.2702   10.4504 H   0  0  0  0  0  0  0  0  0  0  0  0
   10.2818   39.3599    8.9362 H   0  0  0  0  0  0  0  0  0  0  0  0
   10.2179   41.1550    8.9362 H   0  0  0  0  0  0  0  0  0  0  0  0
    8.1844   41.1929   10.1946 H   0  0  0  0  0  0  0  0  0  0  0  0
    7.9464   39.8811    8.9938 H   0  0  0  0  0  0  0  0  0  0  0  0
    9.9823   39.5794   14.0312 H   0  0  0  0  0  0  0  0  0  0  0  0
   10.8478   40.3955   12.6852 H   0  0  0  0  0  0  0  0  0  0  0  0
    9.0530   40.3220   12.6852 H   0  0  0  0  0  0  0  0  0  0  0  0
   10.9555   36.6404   12.0240 H   0  0  0  0  0  0  0  0  0  0  0  0
   12.0081   37.9980   12.6173 H   0  0  0  0  0  0  0  0  0  0  0  0
    8.9362   34.4306   16.5019 H   0  0  0  0  0  0  0  0  0  0  0  0
    9.7788   35.3170   17.8732 H   0  0  0  0  0  0  0  0  0  0  0  0
    6.7043   35.2847   15.7005 H   0  0  0  0  0  0  0  0  0  0  0  0
    4.5471   36.3272   16.4057 H   0  0  0  0  0  0  0  0  0  0  0  0
    4.4382   37.6942   18.4999 H   0  0  0  0  0  0  0  0  0  0  0  0
    5.5048   38.6407   20.4493 H   0  0  0  0  0  0  0  0  0  0  0  0
    7.5370   38.9830   21.8736 H   0  0  0  0  0  0  0  0  0  0  0  0
    9.7206   37.9497   21.2053 H   0  0  0  0  0  0  0  0  0  0  0  0
    9.8779   36.5802   19.1183 H   0  0  0  0  0  0  0  0  0  0  0  0
   11.0348   36.9150   18.5826 H   0  0  0  0  0  0  0  0  0  0  0  0
   12.9516   38.5203   18.7936 H   0  0  0  0  0  0  0  0  0  0  0  0
   13.0565   38.9519   14.4795 H   0  0  0  0  0  0  0  0  0  0  0  0
  1  2  1  0
  2  3  1  0
  3  4  1  0
  4  5  2  0
  4  6  1  0
  6  7  1  0
  6  8  1  0
  8  9  1  0
  9 10  2  0
 10 11  1  0
 11 12  2  0
 11 13  1  0
 10 14  1  0
 14 15  1  0
 15 16  1  0
 16 17  2  0
 17 18  1  0
 18 19  2  0
 19 20  1  0
 20 21  2  0
 21 22  1  0
 22 23  2  0
 23 24  1  0
 24 25  2  0
 14 26  1  0
 26 27  2  0
 27 28  1  0
 28 29  2  0
 29 30  1  0
 29 31  1  0
 31 32  2  0
 32  9  1  0
 25 16  1  0
 32 26  1  0
 25 20  1  0
  1 33  1  0
  1 34  1  0
  1 35  1  0
  2 36  1  0
  2 37  1  0
  7 38  1  0
  7 39  1  0
  7 40  1  0
  8 41  1  0
  8 42  1  0
 15 43  1  0
 15 44  1  0
 17 45  1  0
 18 46  1  0
 19 47  1  0
 21 48  1  0
 22 49  1  0
 23 50  1  0
 24 51  1  0
 27 52  1  0
 28 53  1  0
 31 54  1  0
M  CHG  1  13  -1
M  END
>  <meeko>  (42) 
{"free_energy": -5.25, "intermolecular_energy": -7.63, "internal_energy": -1.71, "cluster_size": 102, "cluster_id": 44, "rank_in_cluster": 51}

$$$$

     RDKit          3D

 54 57  0  0  0  0  0  0  0  0999 V2000
    8.1130   41.6760   11.2680 C   0  0  0  0  0  0  0  0  0  0  0  0
    9.1150   41.2790   10.1810 C   0  0  0  0  0  0  0  0  0  0  0  0
   10.2510   40.6860   10.7880 O   0  0  0  0  0  0  0  0  0  0  0  0
   11.4910   41.1200   10.4730 C   0  0  0  0  0  0  0  0  0  0  0  0
   11.9170   42.2350   10.7800 O   0  0  0  0  0  0  0  0  0  0  0  0
   12.1940   40.1320    9.7720 N   0  0  0  0  0  0  0  0  0  0  0  0
   13.5530   40.3520    9.2650 C   0  0  0  0  0  0  0  0  0  0  0  0
   11.5870   38.8260    9.4810 C   0  0  0  0  0  0  0  0  0  0  0  0
   10.9670   38.1980   10.7070 C   0  0  0  0  0  0  0  0  0  0  0  0
   11.3580   38.3090   12.0300 C   0  0  0  0  0  0  0  0  0  0  0  0
   12.4750   39.1030   12.6310 C   0  0  0  0  0  0  0  0  0  0  0  0
   12.2040   39.9530   13.5060 O   0  0  0  0  0  0  0  0  0  0  0  0
   13.6540   38.9320   12.2510 O   0  0  0  0  0  1  0  0  0  0  0  0
   10.5200   37.4950   12.8220 N   0  0  0  0  0  0  0  0  0  0  0  0
   10.5470   37.3010   14.2740 C   0  0  0  0  0  0  0  0  0  0  0  0
   10.0440   35.9320   14.7510 C   0  0  0  0  0  0  0  0  0  0  0  0
   10.6990   34.7400   14.3540 C   0  0  0  0  0  0  0  0  0  0  0  0
   10.2430   33.4840   14.7890 C   0  0  0  0  0  0  0  0  0  0  0  0
    9.1200   33.3960   15.6280 C   0  0  0  0  0  0  0  0  0  0  0  0
    8.4510   34.5660   16.0340 C   0  0  0  0  0  0  0  0  0  0  0  0
    7.3240   34.4600   16.8760 C   0  0  0  0  0  0  0  0  0  0  0  0
    6.6400   35.6150   17.2950 C   0  0  0  0  0  0  0  0  0  0  0  0
    7.0830   36.8810   16.8720 C   0  0  0  0  0  0  0  0  0  0  0  0
    8.2060   36.9940   16.0300 C   0  0  0  0  0  0  0  0  0  0  0  0
    8.9070   35.8410   15.6000 C   0  0  0  0  0  0  0  0  0  0  0  0
    9.5920   36.8630   12.0050 C   0  0  0  0  0  0  0  0  0  0  0  0
    8.5570   35.9490   12.2910 C   0  0  0  0  0  0  0  0  0  0  0  0
    7.7450   35.4620   11.2530 C   0  0  0  0  0  0  0  0  0  0  0  0
    7.9690   35.8920    9.9330 C   0  0  0  0  0  0  0  0  0  0  0  0
    7.1870   35.4300    8.9280 F   0  0  0  0  0  0  0  0  0  0  0  0
    9.0070   36.8020    9.6550 C   0  0  0  0  0  0  0  0  0  0  0  0
    9.8460   37.3050   10.6790 C   0  0  0  0  0  0  0  0  0  0  0  0
    8.5577   41.4998   12.2586 H   0  0  0  0  0  0  0  0  0  0  0  0
    7.8615   42.7417   11.1633 H   0  0  0  0  0  0  0  0  0  0  0  0
    7.1998   41.0717   11.1633 H   0  0  0  0  0  0  0  0  0  0  0  0
    8.6466   40.5585    9.4943 H   0  0  0  0  0  0  0  0  0  0  0  0
    9.4215   42.1722    9.6169 H   0  0  0  0  0  0  0  0  0  0  0  0
   14.2464   40.4643   10.1115 H   0  0  0  0  0  0  0  0  0  0  0  0
   13.8593   39.4917    8.6517 H   0  0  0  0  0  0  0  0  0  0  0  0
   13.5722   41.2650    8.6517 H   0  0  0  0  0  0  0  0  0  0  0  0
   10.8056   38.9607    8.7186 H   0  0  0  0  0  0  0  0  0  0  0  0
   12.3832   38.1558    9.1248 H   0  0  0  0  0  0  0  0  0  0  0  0
   11.5855   37.4219   14.6159 H   0  0  0  0  0  0  0  0  0  0  0  0
    9.8599   38.0478   14.6985 H   0  0  0  0  0  0  0  0  0  0  0  0
   11.5779   34.7987   13.6952 H   0  0  0  0  0  0  0  0  0  0  0  0
   10.7657   32.5694   14.4723 H   0  0  0  0  0  0  0  0  0  0  0  0
    8.7632   32.4125   15.9679 H   0  0  0  0  0  0  0  0  0  0  0  0
    6.9787   33.4692   17.2063 H   0  0  0  0  0  0  0  0  0  0  0  0
    5.7615   35.5286   17.9513 H   0  0  0  0  0  0  0  0  0  0  0  0
    6.5505   37.7859   17.2000 H   0  0  0  0  0  0  0  0  0  0  0  0
    8.5425   37.9888   15.7026 H   0  0  0  0  0  0  0  0  0  0  0  0
    8.3855   35.6176   13.3258 H   0  0  0  0  0  0  0  0  0  0  0  0
    6.9377   34.7476   11.4719 H   0  0  0  0  0  0  0  0  0  0  0  0
    9.1701   37.1300    8.6178 H   0  0  0  0  0  0  0  0  0  0  0  0
  1  2  1  0
  2  3  1  0
  3  4  1  0
  4  5  2  0
  4  6  1  0
  6  7  1  0
  6  8  1  0
  8  9  1  0
  9 10  2  0
 10 11  1  0
 11 12  2  0
 11 13  1  0
 10 14  1  0
 14 15  1  0
 15 16  1  0
 16 17  2  0
 17 18  1  0
 18 19  2  0
 19 20  1  0
 20 21  2  0
 21 22  1  0
 22 23  2  0
 23 24  1  0
 24 25  2  0
 14 26  1  0
 26 27  2  0
 27 28  1  0
 28 29  2  0
 29 30  1  0
 29 31  1  0
 31 32  2  0
 32  9  1  0
 25 16  1  0
 32 26  1  0
 25 20  1  0
  1 33  1  0
  1 34  1  0
  1 35  1  0
  2 36  1  0
  2 37  1  0
  7 38  1  0
  7 39  1  0
  7 40  1  0
  8 41  1  0
  8 42  1  0
 15 43  1  0
 15 44  1  0
 17 45  1  0
 18 46  1  0
 19 47  1  0
 21 48  1  0
 22 49  1  0
 23 50  1  0
 24 51  1  0
 27 52  1  0
 28 53  1  0
 31 54  1  0
M  CHG  1  13  -1
M  END
>  <meeko>  (43) 
{"free_energy": -6.17, "intermolecular_energy": -8.55, "internal_energy": -1.42, "cluster_size": 253, "cluster_id": 8, "rank_in_cluster": 107}

$$$$

     RDKit          3D

 54 57  0  0  0  0  0  0  0  0999 V2000
    5.2770   38.8040    5.4630 C   0  0  0  0  0  0  0  0  0  0  0  0
    6.5890   39.3960    5.9860 C   0  0  0  0  0  0  0  0  0  0  0  0
    6.7870   38.9800    7.3270 O   0  0  0  0  0  0  0  0  0  0  0  0
    7.3630   37.7860    7.5880 C   0  0  0  0  0  0  0  0  0  0  0  0
    7.2940   36.8200    6.8260 O   0  0  0  0  0  0  0  0  0  0  0  0
    8.0350   37.8230    8.8160 N   0  0  0  0  0  0  0  0  0  0  0  0
    7.3670   38.2270   10.0590 C   0  0  0  0  0  0  0  0  0  0  0  0
    9.4600   37.4820    8.9160 C   0  0  0  0  0  0  0  0  0  0  0  0
   10.0740   37.9620   10.2090 C   0  0  0  0  0  0  0  0  0  0  0  0
   10.9200   39.0360   10.4210 C   0  0  0  0  0  0  0  0  0  0  0  0
   11.4390   40.0470    9.4480 C   0  0  0  0  0  0  0  0  0  0  0  0
   10.9210   41.1850    9.4300 O   0  0  0  0  0  0  0  0  0  0  0  0
   12.3610   39.7530    8.6560 O   0  0  0  0  0  1  0  0  0  0  0  0
   11.2910   39.0620   11.7830 N   0  0  0  0  0  0  0  0  0  0  0  0
   12.1600   40.0190   12.4720 C   0  0  0  0  0  0  0  0  0  0  0  0
   13.6640   39.7710   12.2900 C   0  0  0  0  0  0  0  0  0  0  0  0
   14.6180   40.6560   12.8520 C   0  0  0  0  0  0  0  0  0  0  0  0
   15.9960   40.4330   12.6880 C   0  0  0  0  0  0  0  0  0  0  0  0
   16.4460   39.3210   11.9580 C   0  0  0  0  0  0  0  0  0  0  0  0
   15.5170   38.4290   11.3890 C   0  0  0  0  0  0  0  0  0  0  0  0
   15.9870   37.3180   10.6580 C   0  0  0  0  0  0  0  0  0  0  0  0
   15.0780   36.4140   10.0800 C   0  0  0  0  0  0  0  0  0  0  0  0
   13.6950   36.6190   10.2340 C   0  0  0  0  0  0  0  0  0  0  0  0
   13.2200   37.7270   10.9620 C   0  0  0  0  0  0  0  0  0  0  0  0
   14.1220   38.6470   11.5500 C   0  0  0  0  0  0  0  0  0  0  0  0
   10.6820   38.0020   12.4420 C   0  0  0  0  0  0  0  0  0  0  0  0
   10.7350   37.5760   13.7860 C   0  0  0  0  0  0  0  0  0  0  0  0
    9.9970   36.4520   14.1940 C   0  0  0  0  0  0  0  0  0  0  0  0
    9.2100   35.7590   13.2600 C   0  0  0  0  0  0  0  0  0  0  0  0
    8.4940   34.6770   13.6480 F   0  0  0  0  0  0  0  0  0  0  0  0
    9.1650   36.1870   11.9190 C   0  0  0  0  0  0  0  0  0  0  0  0
    9.9020   37.3120   11.4760 C   0  0  0  0  0  0  0  0  0  0  0  0
    4.6400   38.5166    6.3125 H   0  0  0  0  0  0  0  0  0  0  0  0
    4.7549   39.5538    4.8504 H   0  0  0  0  0  0  0  0  0  0  0  0
    5.4937   37.9164    4.8504 H   0  0  0  0  0  0  0  0  0  0  0  0
    7.4252   39.0435    5.3643 H   0  0  0  0  0  0  0  0  0  0  0  0
    6.5417   40.4941    5.9431 H   0  0  0  0  0  0  0  0  0  0  0  0
    7.9516   37.8734   10.9211 H   0  0  0  0  0  0  0  0  0  0  0  0
    7.2892   39.3237   10.0937 H   0  0  0  0  0  0  0  0  0  0  0  0
    6.3596   37.7866   10.0937 H   0  0  0  0  0  0  0  0  0  0  0  0
    9.5672   36.3888    8.8578 H   0  0  0  0  0  0  0  0  0  0  0  0
    9.9847   37.9814    8.0882 H   0  0  0  0  0  0  0  0  0  0  0  0
   11.9307   41.0251   12.0910 H   0  0  0  0  0  0  0  0  0  0  0  0
   11.9555   39.9044   13.5467 H   0  0  0  0  0  0  0  0  0  0  0  0
   14.2749   41.5301   13.4249 H   0  0  0  0  0  0  0  0  0  0  0  0
   16.7223   41.1299   13.1317 H   0  0  0  0  0  0  0  0  0  0  0  0
   17.5246   39.1468   11.8307 H   0  0  0  0  0  0  0  0  0  0  0  0
   17.0689   37.1581   10.5396 H   0  0  0  0  0  0  0  0  0  0  0  0
   15.4474   35.5493    9.5092 H   0  0  0  0  0  0  0  0  0  0  0  0
   12.9824   35.9118    9.7845 H   0  0  0  0  0  0  0  0  0  0  0  0
   12.1365   37.8796   11.0752 H   0  0  0  0  0  0  0  0  0  0  0  0
   11.3530   38.1229   14.5133 H   0  0  0  0  0  0  0  0  0  0  0  0
   10.0356   36.1163   15.2408 H   0  0  0  0  0  0  0  0  0  0  0  0
    8.5430   35.6347   11.1992 H   0  0  0  0  0  0  0  0  0  0  0  0
  1  2  1  0
  2  3  1  0
  3  4  1  0
  4  5  2  0
  4  6  1  0
  6  7  1  0
  6  8  1  0
  8  9  1  0
  9 10  2  0
 10 11  1  0
 11 12  2  0
 11 13  1  0
 10 14  1  0
 14 15  1  0
 15 16  1  0
 16 17  2  0
 17 18  1  0
 18 19  2  0
 19 20  1  0
 20 21  2  0
 21 22  1  0
 22 23  2  0
 23 24  1  0
 24 25  2  0
 14 26  1  0
 26 27  2  0
 27 28  1  0
 28 29  2  0
 29 30  1  0
 29 31  1  0
 31 32  2  0
 32  9  1  0
 25 16  1  0
 32 26  1  0
 25 20  1  0
  1 33  1  0
  1 34  1  0
  1 35  1  0
  2 36  1  0
  2 37  1  0
  7 38  1  0
  7 39  1  0
  7 40  1  0
  8 41  1  0
  8 42  1  0
 15 43  1  0
 15 44  1  0
 17 45  1  0
 18 46  1  0
 19 47  1  0
 21 48  1  0
 22 49  1  0
 23 50  1  0
 24 51  1  0
 27 52  1  0
 28 53  1  0
 31 54  1  0
M  CHG  1  13  -1
M  END
>  <meeko>  (44) 
{"free_energy": -5.74, "intermolecular_energy": -8.13, "internal_energy": -0.36, "cluster_size": 124, "cluster_id": 20, "rank_in_cluster": 70}

$$$$

     RDKit          3D

 54 57  0  0  0  0  0  0  0  0999 V2000
    6.0620   45.6240   12.6710 C   0  0  0  0  0  0  0  0  0  0  0  0
    6.0020   45.0190   14.0760 C   0  0  0  0  0  0  0  0  0  0  0  0
    6.4490   43.6730   14.0240 O   0  0  0  0  0  0  0  0  0  0  0  0
    7.6790   43.3510   14.4810 C   0  0  0  0  0  0  0  0  0  0  0  0
    7.9790   43.3540   15.6760 O   0  0  0  0  0  0  0  0  0  0  0  0
    8.5270   43.0190   13.4170 N   0  0  0  0  0  0  0  0  0  0  0  0
    8.0160   42.7310   12.0720 C   0  0  0  0  0  0  0  0  0  0  0  0
    9.9800   42.9120   13.6060 C   0  0  0  0  0  0  0  0  0  0  0  0
   10.5430   41.6440   13.0080 C   0  0  0  0  0  0  0  0  0  0  0  0
   10.6250   40.3830   13.5710 C   0  0  0  0  0  0  0  0  0  0  0  0
   10.1540   39.9020   14.9070 C   0  0  0  0  0  0  0  0  0  0  0  0
   10.5490   38.7900   15.3190 O   0  0  0  0  0  0  0  0  0  0  0  0
    9.3650   40.5910   15.5890 O   0  0  0  0  0  1  0  0  0  0  0  0
   11.2860   39.5240   12.6670 N   0  0  0  0  0  0  0  0  0  0  0  0
   11.5920   38.0990   12.8230 C   0  0  0  0  0  0  0  0  0  0  0  0
   10.3820   37.1630   12.7100 C   0  0  0  0  0  0  0  0  0  0  0  0
    9.9540   36.3930   13.8210 C   0  0  0  0  0  0  0  0  0  0  0  0
    8.8450   35.5350   13.7230 C   0  0  0  0  0  0  0  0  0  0  0  0
    8.1450   35.4280   12.5100 C   0  0  0  0  0  0  0  0  0  0  0  0
    8.5510   36.1810   11.3930 C   0  0  0  0  0  0  0  0  0  0  0  0
    7.8360   36.0610   10.1830 C   0  0  0  0  0  0  0  0  0  0  0  0
    8.2250   36.8030    9.0530 C   0  0  0  0  0  0  0  0  0  0  0  0
    9.3300   37.6690    9.1320 C   0  0  0  0  0  0  0  0  0  0  0  0
   10.0490   37.7930   10.3360 C   0  0  0  0  0  0  0  0  0  0  0  0
    9.6710   37.0530   11.4840 C   0  0  0  0  0  0  0  0  0  0  0  0
   11.6270   40.2370   11.5250 C   0  0  0  0  0  0  0  0  0  0  0  0
   12.3020   39.8570   10.3460 C   0  0  0  0  0  0  0  0  0  0  0  0
   12.5100   40.7970    9.3240 C   0  0  0  0  0  0  0  0  0  0  0  0
   12.0420   42.1130    9.4820 C   0  0  0  0  0  0  0  0  0  0  0  0
   12.2360   43.0230    8.4980 F   0  0  0  0  0  0  0  0  0  0  0  0
   11.3730   42.4860   10.6630 C   0  0  0  0  0  0  0  0  0  0  0  0
   11.1540   41.5630   11.7140 C   0  0  0  0  0  0  0  0  0  0  0  0
    6.1703   46.7161   12.7464 H   0  0  0  0  0  0  0  0  0  0  0  0
    6.9232   45.2067   12.1286 H   0  0  0  0  0  0  0  0  0  0  0  0
    5.1356   45.3840   12.1286 H   0  0  0  0  0  0  0  0  0  0  0  0
    6.6494   45.5958   14.7529 H   0  0  0  0  0  0  0  0  0  0  0  0
    4.9673   45.0507   14.4481 H   0  0  0  0  0  0  0  0  0  0  0  0
    7.0602   42.1923   12.1505 H   0  0  0  0  0  0  0  0  0  0  0  0
    7.8614   43.6748   11.5286 H   0  0  0  0  0  0  0  0  0  0  0  0
    8.7434   42.1100   11.5286 H   0  0  0  0  0  0  0  0  0  0  0  0
   10.4639   43.7751   13.1256 H   0  0  0  0  0  0  0  0  0  0  0  0
   10.1785   42.8915   14.6877 H   0  0  0  0  0  0  0  0  0  0  0  0
   12.3158   37.8175   12.0439 H   0  0  0  0  0  0  0  0  0  0  0  0
   11.9824   37.9770   13.8441 H   0  0  0  0  0  0  0  0  0  0  0  0
   10.4981   36.4682   14.7740 H   0  0  0  0  0  0  0  0  0  0  0  0
    8.5253   34.9474   14.5962 H   0  0  0  0  0  0  0  0  0  0  0  0
    7.2785   34.7548   12.4333 H   0  0  0  0  0  0  0  0  0  0  0  0
    6.9707   35.3845   10.1228 H   0  0  0  0  0  0  0  0  0  0  0  0
    7.6664   36.7061    8.1104 H   0  0  0  0  0  0  0  0  0  0  0  0
    9.6337   38.2517    8.2498 H   0  0  0  0  0  0  0  0  0  0  0  0
   10.9134   38.4715   10.3862 H   0  0  0  0  0  0  0  0  0  0  0  0
   12.6650   38.8254   10.2275 H   0  0  0  0  0  0  0  0  0  0  0  0
   13.0369   40.5049    8.4037 H   0  0  0  0  0  0  0  0  0  0  0  0
   11.0117   43.5193   10.7719 H   0  0  0  0  0  0  0  0  0  0  0  0
  1  2  1  0
  2  3  1  0
  3  4  1  0
  4  5  2  0
  4  6  1  0
  6  7  1  0
  6  8  1  0
  8  9  1  0
  9 10  2  0
 10 11  1  0
 11 12  2  0
 11 13  1  0
 10 14  1  0
 14 15  1  0
 15 16  1  0
 16 17  2  0
 17 18  1  0
 18 19  2  0
 19 20  1  0
 20 21  2  0
 21 22  1  0
 22 23  2  0
 23 24  1  0
 24 25  2  0
 14 26  1  0
 26 27  2  0
 27 28  1  0
 28 29  2  0
 29 30  1  0
 29 31  1  0
 31 32  2  0
 32  9  1  0
 25 16  1  0
 32 26  1  0
 25 20  1  0
  1 33  1  0
  1 34  1  0
  1 35  1  0
  2 36  1  0
  2 37  1  0
  7 38  1  0
  7 39  1  0
  7 40  1  0
  8 41  1  0
  8 42  1  0
 15 43  1  0
 15 44  1  0
 17 45  1  0
 18 46  1  0
 19 47  1  0
 21 48  1  0
 22 49  1  0
 23 50  1  0
 24 51  1  0
 27 52  1  0
 28 53  1  0
 31 54  1  0
M  CHG  1  13  -1
M  END
>  <meeko>  (45) 
{"free_energy": -5.56, "intermolecular_energy": -7.95, "internal_energy": -1.74, "cluster_size": 13, "cluster_id": 51, "rank_in_cluster": 6}

$$$$

     RDKit          3D

 54 57  0  0  0  0  0  0  0  0999 V2000
   15.1400   39.1860   19.4130 C   0  0  0  0  0  0  0  0  0  0  0  0
   15.1990   39.5980   17.9410 C   0  0  0  0  0  0  0  0  0  0  0  0
   14.1060   39.0180   17.2480 O   0  0  0  0  0  0  0  0  0  0  0  0
   14.3140   37.9980   16.3890 C   0  0  0  0  0  0  0  0  0  0  0  0
   14.1240   38.0840   15.1750 O   0  0  0  0  0  0  0  0  0  0  0  0
   14.7720   36.8640   17.0740 N   0  0  0  0  0  0  0  0  0  0  0  0
   16.1710   36.4280   17.0130 C   0  0  0  0  0  0  0  0  0  0  0  0
   13.8580   36.0340   17.8700 C   0  0  0  0  0  0  0  0  0  0  0  0
   12.4310   36.1250   17.3820 C   0  0  0  0  0  0  0  0  0  0  0  0
   11.4690   37.0710   17.6900 C   0  0  0  0  0  0  0  0  0  0  0  0
   11.5690   38.2860   18.5570 C   0  0  0  0  0  0  0  0  0  0  0  0
   12.1080   38.1800   19.6790 O   0  0  0  0  0  0  0  0  0  0  0  0
   11.1040   39.3820   18.1730 O   0  0  0  0  0  1  0  0  0  0  0  0
   10.2620   36.7160   17.0510 N   0  0  0  0  0  0  0  0  0  0  0  0
    8.9760   37.4190   17.0770 C   0  0  0  0  0  0  0  0  0  0  0  0
    7.9230   36.8040   18.0080 C   0  0  0  0  0  0  0  0  0  0  0  0
    7.1840   35.6610   17.6130 C   0  0  0  0  0  0  0  0  0  0  0  0
    6.2190   35.0940   18.4630 C   0  0  0  0  0  0  0  0  0  0  0  0
    5.9720   35.6620   19.7230 C   0  0  0  0  0  0  0  0  0  0  0  0
    6.6910   36.7990   20.1370 C   0  0  0  0  0  0  0  0  0  0  0  0
    6.4290   37.3560   21.4060 C   0  0  0  0  0  0  0  0  0  0  0  0
    7.1350   38.4920   21.8400 C   0  0  0  0  0  0  0  0  0  0  0  0
    8.1060   39.0730   21.0050 C   0  0  0  0  0  0  0  0  0  0  0  0
    8.3720   38.5220   19.7370 C   0  0  0  0  0  0  0  0  0  0  0  0
    7.6700   37.3780   19.2840 C   0  0  0  0  0  0  0  0  0  0  0  0
   10.4520   35.5410   16.3350 C   0  0  0  0  0  0  0  0  0  0  0  0
    9.5740   34.7680   15.5470 C   0  0  0  0  0  0  0  0  0  0  0  0
   10.0400   33.6040   14.9140 C   0  0  0  0  0  0  0  0  0  0  0  0
   11.3830   33.2170   15.0700 C   0  0  0  0  0  0  0  0  0  0  0  0
   11.8400   32.0980   14.4590 F   0  0  0  0  0  0  0  0  0  0  0  0
   12.2530   33.9920   15.8610 C   0  0  0  0  0  0  0  0  0  0  0  0
   11.8100   35.1660   16.5170 C   0  0  0  0  0  0  0  0  0  0  0  0
   15.2673   40.0751   20.0480 H   0  0  0  0  0  0  0  0  0  0  0  0
   14.1660   38.7206   19.6248 H   0  0  0  0  0  0  0  0  0  0  0  0
   15.9442   38.4660   19.6248 H   0  0  0  0  0  0  0  0  0  0  0  0
   15.1434   40.6939   17.8636 H   0  0  0  0  0  0  0  0  0  0  0  0
   16.1434   39.2488   17.4981 H   0  0  0  0  0  0  0  0  0  0  0  0
   16.5619   36.3062   18.0339 H   0  0  0  0  0  0  0  0  0  0  0  0
   16.2329   35.4679   16.4797 H   0  0  0  0  0  0  0  0  0  0  0  0
   16.7674   37.1829   16.4797 H   0  0  0  0  0  0  0  0  0  0  0  0
   14.1870   34.9862   17.8085 H   0  0  0  0  0  0  0  0  0  0  0  0
   13.8841   36.4024   18.9062 H   0  0  0  0  0  0  0  0  0  0  0  0
    9.1585   38.4535   17.4035 H   0  0  0  0  0  0  0  0  0  0  0  0
    8.5658   37.3501   16.0587 H   0  0  0  0  0  0  0  0  0  0  0  0
    7.3685   35.2109   16.6264 H   0  0  0  0  0  0  0  0  0  0  0  0
    5.6570   34.2049   18.1410 H   0  0  0  0  0  0  0  0  0  0  0  0
    5.2159   35.2180   20.3872 H   0  0  0  0  0  0  0  0  0  0  0  0
    5.6697   36.9002   22.0585 H   0  0  0  0  0  0  0  0  0  0  0  0
    6.9283   38.9250   22.8299 H   0  0  0  0  0  0  0  0  0  0  0  0
    8.6596   39.9611   21.3437 H   0  0  0  0  0  0  0  0  0  0  0  0
    9.1329   38.9847   19.0913 H   0  0  0  0  0  0  0  0  0  0  0  0
    8.5249   35.0766   15.4283 H   0  0  0  0  0  0  0  0  0  0  0  0
    9.3580   32.9982   14.2994 H   0  0  0  0  0  0  0  0  0  0  0  0
   13.3014   33.6779   15.9718 H   0  0  0  0  0  0  0  0  0  0  0  0
  1  2  1  0
  2  3  1  0
  3  4  1  0
  4  5  2  0
  4  6  1  0
  6  7  1  0
  6  8  1  0
  8  9  1  0
  9 10  2  0
 10 11  1  0
 11 12  2  0
 11 13  1  0
 10 14  1  0
 14 15  1  0
 15 16  1  0
 16 17  2  0
 17 18  1  0
 18 19  2  0
 19 20  1  0
 20 21  2  0
 21 22  1  0
 22 23  2  0
 23 24  1  0
 24 25  2  0
 14 26  1  0
 26 27  2  0
 27 28  1  0
 28 29  2  0
 29 30  1  0
 29 31  1  0
 31 32  2  0
 32  9  1  0
 25 16  1  0
 32 26  1  0
 25 20  1  0
  1 33  1  0
  1 34  1  0
  1 35  1  0
  2 36  1  0
  2 37  1  0
  7 38  1  0
  7 39  1  0
  7 40  1  0
  8 41  1  0
  8 42  1  0
 15 43  1  0
 15 44  1  0
 17 45  1  0
 18 46  1  0
 19 47  1  0
 21 48  1  0
 22 49  1  0
 23 50  1  0
 24 51  1  0
 27 52  1  0
 28 53  1  0
 31 54  1  0
M  CHG  1  13  -1
M  END
>  <meeko>  (46) 
{"free_energy": -4.44, "intermolecular_energy": -6.82, "internal_energy": -2.04, "cluster_size": 9, "cluster_id": 103, "rank_in_cluster": 7}

$$$$

     RDKit          3D

 54 57  0  0  0  0  0  0  0  0999 V2000
   16.4530   37.6620   15.5280 C   0  0  0  0  0  0  0  0  0  0  0  0
   15.8620   39.0080   15.1010 C   0  0  0  0  0  0  0  0  0  0  0  0
   14.7170   38.7800   14.2960 O   0  0  0  0  0  0  0  0  0  0  0  0
   13.4950   38.7020   14.8650 C   0  0  0  0  0  0  0  0  0  0  0  0
   12.9790   37.6410   15.2210 O   0  0  0  0  0  0  0  0  0  0  0  0
   12.9280   39.9770   14.9890 N   0  0  0  0  0  0  0  0  0  0  0  0
   12.8410   40.9060   13.8570 C   0  0  0  0  0  0  0  0  0  0  0  0
   12.4150   40.4610   16.2780 C   0  0  0  0  0  0  0  0  0  0  0  0
   12.1780   39.3360   17.2580 C   0  0  0  0  0  0  0  0  0  0  0  0
   10.9860   38.7240   17.6050 C   0  0  0  0  0  0  0  0  0  0  0  0
    9.6030   38.9710   17.0910 C   0  0  0  0  0  0  0  0  0  0  0  0
    8.8280   39.6800   17.7690 O   0  0  0  0  0  0  0  0  0  0  0  0
    9.2240   38.4620   16.0130 O   0  0  0  0  0  1  0  0  0  0  0  0
   11.2420   37.7670   18.6090 N   0  0  0  0  0  0  0  0  0  0  0  0
   10.2930   36.8700   19.2760 C   0  0  0  0  0  0  0  0  0  0  0  0
    9.2120   36.2800   18.3600 C   0  0  0  0  0  0  0  0  0  0  0  0
    7.8380   36.5200   18.6110 C   0  0  0  0  0  0  0  0  0  0  0  0
    6.8450   35.9810   17.7750 C   0  0  0  0  0  0  0  0  0  0  0  0
    7.2070   35.1890   16.6740 C   0  0  0  0  0  0  0  0  0  0  0  0
    8.5660   34.9350   16.4050 C   0  0  0  0  0  0  0  0  0  0  0  0
    8.9110   34.1370   15.2950 C   0  0  0  0  0  0  0  0  0  0  0  0
   10.2620   33.8690   15.0070 C   0  0  0  0  0  0  0  0  0  0  0  0
   11.2700   34.4000   15.8300 C   0  0  0  0  0  0  0  0  0  0  0  0
   10.9320   35.1970   16.9410 C   0  0  0  0  0  0  0  0  0  0  0  0
    9.5760   35.4770   17.2450 C   0  0  0  0  0  0  0  0  0  0  0  0
   12.5990   37.7660   18.9060 C   0  0  0  0  0  0  0  0  0  0  0  0
   13.3580   37.0190   19.8300 C   0  0  0  0  0  0  0  0  0  0  0  0
   14.7460   37.2170   19.9180 C   0  0  0  0  0  0  0  0  0  0  0  0
   15.3710   38.1580   19.0820 C   0  0  0  0  0  0  0  0  0  0  0  0
   16.7090   38.3500   19.1590 F   0  0  0  0  0  0  0  0  0  0  0  0
   14.6050   38.9020   18.1630 C   0  0  0  0  0  0  0  0  0  0  0  0
   13.2040   38.7300   18.0560 C   0  0  0  0  0  0  0  0  0  0  0  0
   16.4783   37.6045   16.6262 H   0  0  0  0  0  0  0  0  0  0  0  0
   15.8303   36.8461   15.1323 H   0  0  0  0  0  0  0  0  0  0  0  0
   17.4751   37.5682   15.1323 H   0  0  0  0  0  0  0  0  0  0  0  0
   15.5756   39.5838   15.9934 H   0  0  0  0  0  0  0  0  0  0  0  0
   16.6101   39.5749   14.5275 H   0  0  0  0  0  0  0  0  0  0  0  0
   12.7446   41.9350   14.2337 H   0  0  0  0  0  0  0  0  0  0  0  0
   13.7508   40.8235   13.2442 H   0  0  0  0  0  0  0  0  0  0  0  0
   11.9623   40.6561   13.2442 H   0  0  0  0  0  0  0  0  0  0  0  0
   13.1468   41.1591   16.7106 H   0  0  0  0  0  0  0  0  0  0  0  0
   11.4501   40.9555   16.0926 H   0  0  0  0  0  0  0  0  0  0  0  0
   10.8609   36.0369   19.7157 H   0  0  0  0  0  0  0  0  0  0  0  0
    9.7655   37.4790   20.0249 H   0  0  0  0  0  0  0  0  0  0  0  0
    7.5443   37.1372   19.4728 H   0  0  0  0  0  0  0  0  0  0  0  0
    5.7834   36.1799   17.9836 H   0  0  0  0  0  0  0  0  0  0  0  0
    6.4290   34.7666   16.0211 H   0  0  0  0  0  0  0  0  0  0  0  0
    8.1210   33.7223   14.6517 H   0  0  0  0  0  0  0  0  0  0  0  0
   10.5284   33.2459   14.1405 H   0  0  0  0  0  0  0  0  0  0  0  0
   12.3267   34.1924   15.6056 H   0  0  0  0  0  0  0  0  0  0  0  0
   11.7286   35.6065   17.5795 H   0  0  0  0  0  0  0  0  0  0  0  0
   12.8642   36.2824   20.4809 H   0  0  0  0  0  0  0  0  0  0  0  0
   15.3416   36.6375   20.6388 H   0  0  0  0  0  0  0  0  0  0  0  0
   15.1074   39.6338   17.5133 H   0  0  0  0  0  0  0  0  0  0  0  0
  1  2  1  0
  2  3  1  0
  3  4  1  0
  4  5  2  0
  4  6  1  0
  6  7  1  0
  6  8  1  0
  8  9  1  0
  9 10  2  0
 10 11  1  0
 11 12  2  0
 11 13  1  0
 10 14  1  0
 14 15  1  0
 15 16  1  0
 16 17  2  0
 17 18  1  0
 18 19  2  0
 19 20  1  0
 20 21  2  0
 21 22  1  0
 22 23  2  0
 23 24  1  0
 24 25  2  0
 14 26  1  0
 26 27  2  0
 27 28  1  0
 28 29  2  0
 29 30  1  0
 29 31  1  0
 31 32  2  0
 32  9  1  0
 25 16  1  0
 32 26  1  0
 25 20  1  0
  1 33  1  0
  1 34  1  0
  1 35  1  0
  2 36  1  0
  2 37  1  0
  7 38  1  0
  7 39  1  0
  7 40  1  0
  8 41  1  0
  8 42  1  0
 15 43  1  0
 15 44  1  0
 17 45  1  0
 18 46  1  0
 19 47  1  0
 21 48  1  0
 22 49  1  0
 23 50  1  0
 24 51  1  0
 27 52  1  0
 28 53  1  0
 31 54  1  0
M  CHG  1  13  -1
M  END
>  <meeko>  (47) 
{"free_energy": -4.36, "intermolecular_energy": -6.75, "internal_energy": -2.44, "cluster_size": 11, "cluster_id": 147, "rank_in_cluster": 8}

$$$$

     RDKit          3D

 54 57  0  0  0  0  0  0  0  0999 V2000
    9.5870   40.2600    9.4880 C   0  0  0  0  0  0  0  0  0  0  0  0
   10.4310   41.5370    9.5310 C   0  0  0  0  0  0  0  0  0  0  0  0
   11.6620   41.2610   10.1800 O   0  0  0  0  0  0  0  0  0  0  0  0
   11.6770   40.9220   11.4870 C   0  0  0  0  0  0  0  0  0  0  0  0
   12.3630   40.0050   11.9410 O   0  0  0  0  0  0  0  0  0  0  0  0
   10.8210   41.7540   12.2200 N   0  0  0  0  0  0  0  0  0  0  0  0
   11.1610   43.1480   12.5250 C   0  0  0  0  0  0  0  0  0  0  0  0
    9.5440   41.2570   12.7490 C   0  0  0  0  0  0  0  0  0  0  0  0
    9.7220   40.0450   13.6320 C   0  0  0  0  0  0  0  0  0  0  0  0
    9.9230   39.9920   15.0000 C   0  0  0  0  0  0  0  0  0  0  0  0
    9.9850   41.1040   15.9990 C   0  0  0  0  0  0  0  0  0  0  0  0
    8.9600   41.7910   16.1980 O   0  0  0  0  0  0  0  0  0  0  0  0
   11.0480   41.3530   16.6090 O   0  0  0  0  0  1  0  0  0  0  0  0
   10.1010   38.6450   15.3810 N   0  0  0  0  0  0  0  0  0  0  0  0
   10.3320   38.1010   16.7220 C   0  0  0  0  0  0  0  0  0  0  0  0
    9.0850   38.0310   17.6140 C   0  0  0  0  0  0  0  0  0  0  0  0
    8.7760   39.0810   18.5140 C   0  0  0  0  0  0  0  0  0  0  0  0
    7.6350   39.0210   19.3330 C   0  0  0  0  0  0  0  0  0  0  0  0
    6.7810   37.9080   19.2670 C   0  0  0  0  0  0  0  0  0  0  0  0
    7.0670   36.8520   18.3820 C   0  0  0  0  0  0  0  0  0  0  0  0
    6.1980   35.7420   18.3290 C   0  0  0  0  0  0  0  0  0  0  0  0
    6.4640   34.6750   17.4530 C   0  0  0  0  0  0  0  0  0  0  0  0
    7.6000   34.7160   16.6250 C   0  0  0  0  0  0  0  0  0  0  0  0
    8.4720   35.8210   16.6730 C   0  0  0  0  0  0  0  0  0  0  0  0
    8.2190   36.9050   17.5500 C   0  0  0  0  0  0  0  0  0  0  0  0
   10.0150   37.8350   14.2560 C   0  0  0  0  0  0  0  0  0  0  0  0
   10.1340   36.4400   14.0900 C   0  0  0  0  0  0  0  0  0  0  0  0
    9.9920   35.8710   12.8140 C   0  0  0  0  0  0  0  0  0  0  0  0
    9.7290   36.6980   11.7080 C   0  0  0  0  0  0  0  0  0  0  0  0
    9.5870   36.1560   10.4750 F   0  0  0  0  0  0  0  0  0  0  0  0
    9.6150   38.0910   11.8800 C   0  0  0  0  0  0  0  0  0  0  0  0
    9.7610   38.6940   13.1530 C   0  0  0  0  0  0  0  0  0  0  0  0
    9.3689   39.9299   10.5144 H   0  0  0  0  0  0  0  0  0  0  0  0
    8.6437   40.4616    8.9594 H   0  0  0  0  0  0  0  0  0  0  0  0
   10.1422   39.4712    8.9594 H   0  0  0  0  0  0  0  0  0  0  0  0
   10.6255   41.8841    8.5055 H   0  0  0  0  0  0  0  0  0  0  0  0
    9.8895   42.3194   10.0830 H   0  0  0  0  0  0  0  0  0  0  0  0
   11.1949   43.2869   13.6157 H   0  0  0  0  0  0  0  0  0  0  0  0
   12.1441   43.3884   12.0940 H   0  0  0  0  0  0  0  0  0  0  0  0
   10.3990   43.8140   12.0940 H   0  0  0  0  0  0  0  0  0  0  0  0
    9.0696   42.0565   13.3371 H   0  0  0  0  0  0  0  0  0  0  0  0
    8.9180   40.9614   11.8942 H   0  0  0  0  0  0  0  0  0  0  0  0
   10.7321   37.0821   16.6133 H   0  0  0  0  0  0  0  0  0  0  0  0
   11.0290   38.7914   17.2194 H   0  0  0  0  0  0  0  0  0  0  0  0
    9.4392   39.9566   18.5727 H   0  0  0  0  0  0  0  0  0  0  0  0
    7.4111   39.8458   20.0255 H   0  0  0  0  0  0  0  0  0  0  0  0
    5.8879   37.8617   19.9076 H   0  0  0  0  0  0  0  0  0  0  0  0
    5.3087   35.7112   18.9757 H   0  0  0  0  0  0  0  0  0  0  0  0
    5.7852   33.8102   17.4153 H   0  0  0  0  0  0  0  0  0  0  0  0
    7.8081   33.8826   15.9379 H   0  0  0  0  0  0  0  0  0  0  0  0
    9.3590   35.8428   16.0227 H   0  0  0  0  0  0  0  0  0  0  0  0
   10.3379   35.7977   14.9594 H   0  0  0  0  0  0  0  0  0  0  0  0
   10.0861   34.7832   12.6805 H   0  0  0  0  0  0  0  0  0  0  0  0
    9.4078   38.7253   11.0055 H   0  0  0  0  0  0  0  0  0  0  0  0
  1  2  1  0
  2  3  1  0
  3  4  1  0
  4  5  2  0
  4  6  1  0
  6  7  1  0
  6  8  1  0
  8  9  1  0
  9 10  2  0
 10 11  1  0
 11 12  2  0
 11 13  1  0
 10 14  1  0
 14 15  1  0
 15 16  1  0
 16 17  2  0
 17 18  1  0
 18 19  2  0
 19 20  1  0
 20 21  2  0
 21 22  1  0
 22 23  2  0
 23 24  1  0
 24 25  2  0
 14 26  1  0
 26 27  2  0
 27 28  1  0
 28 29  2  0
 29 30  1  0
 29 31  1  0
 31 32  2  0
 32  9  1  0
 25 16  1  0
 32 26  1  0
 25 20  1  0
  1 33  1  0
  1 34  1  0
  1 35  1  0
  2 36  1  0
  2 37  1  0
  7 38  1  0
  7 39  1  0
  7 40  1  0
  8 41  1  0
  8 42  1  0
 15 43  1  0
 15 44  1  0
 17 45  1  0
 18 46  1  0
 19 47  1  0
 21 48  1  0
 22 49  1  0
 23 50  1  0
 24 51  1  0
 27 52  1  0
 28 53  1  0
 31 54  1  0
M  CHG  1  13  -1
M  END
>  <meeko>  (48) 
{"free_energy": -5.2, "intermolecular_energy": -7.59, "internal_energy": -2.17, "cluster_size": 121, "cluster_id": 34, "rank_in_cluster": 72}

$$$$

     RDKit          3D

 54 57  0  0  0  0  0  0  0  0999 V2000
   12.2160   41.8810    9.1000 C   0  0  0  0  0  0  0  0  0  0  0  0
   13.2760   41.1060    8.3140 C   0  0  0  0  0  0  0  0  0  0  0  0
   14.2630   40.6230    9.2110 O   0  0  0  0  0  0  0  0  0  0  0  0
   14.5110   39.2980    9.2940 C   0  0  0  0  0  0  0  0  0  0  0  0
   15.2060   38.6870    8.4800 O   0  0  0  0  0  0  0  0  0  0  0  0
   13.8810   38.7490   10.4180 N   0  0  0  0  0  0  0  0  0  0  0  0
   13.7600   37.3010   10.6160 C   0  0  0  0  0  0  0  0  0  0  0  0
   13.2790   39.6060   11.4480 C   0  0  0  0  0  0  0  0  0  0  0  0
   12.3840   38.8310   12.3860 C   0  0  0  0  0  0  0  0  0  0  0  0
   12.5370   38.6080   13.7440 C   0  0  0  0  0  0  0  0  0  0  0  0
   13.6020   39.0930   14.6760 C   0  0  0  0  0  0  0  0  0  0  0  0
   13.4210   40.1680   15.2880 O   0  0  0  0  0  0  0  0  0  0  0  0
   14.6610   38.4450   14.8250 O   0  0  0  0  0  1  0  0  0  0  0  0
   11.4890   37.7740   14.1880 N   0  0  0  0  0  0  0  0  0  0  0  0
   11.2310   37.2790   15.5430 C   0  0  0  0  0  0  0  0  0  0  0  0
   10.5410   35.9110   15.6100 C   0  0  0  0  0  0  0  0  0  0  0  0
   11.1860   34.7470   15.1220 C   0  0  0  0  0  0  0  0  0  0  0  0
   10.5580   33.4920   15.1810 C   0  0  0  0  0  0  0  0  0  0  0  0
    9.2700   33.3760   15.7280 C   0  0  0  0  0  0  0  0  0  0  0  0
    8.6070   34.5170   16.2180 C   0  0  0  0  0  0  0  0  0  0  0  0
    7.3130   34.3830   16.7640 C   0  0  0  0  0  0  0  0  0  0  0  0
    6.6320   35.5090   17.2590 C   0  0  0  0  0  0  0  0  0  0  0  0
    7.2450   36.7740   17.2100 C   0  0  0  0  0  0  0  0  0  0  0  0
    8.5360   36.9150   16.6660 C   0  0  0  0  0  0  0  0  0  0  0  0
    9.2360   35.7910   16.1630 C   0  0  0  0  0  0  0  0  0  0  0  0
   10.6650   37.4620   13.1140 C   0  0  0  0  0  0  0  0  0  0  0  0
    9.5060   36.6650   13.0190 C   0  0  0  0  0  0  0  0  0  0  0  0
    8.8510   36.5250   11.7850 C   0  0  0  0  0  0  0  0  0  0  0  0
    9.3550   37.1840   10.6500 C   0  0  0  0  0  0  0  0  0  0  0  0
    8.7260   37.0570    9.4580 F   0  0  0  0  0  0  0  0  0  0  0  0
   10.5150   37.9760   10.7520 C   0  0  0  0  0  0  0  0  0  0  0  0
   11.2010   38.1310   11.9810 C   0  0  0  0  0  0  0  0  0  0  0  0
   12.3920   41.7523   10.1782 H   0  0  0  0  0  0  0  0  0  0  0  0
   12.2771   42.9489    8.8434 H   0  0  0  0  0  0  0  0  0  0  0  0
   11.2169   41.4988    8.8434 H   0  0  0  0  0  0  0  0  0  0  0  0
   12.8032   40.2584    7.7963 H   0  0  0  0  0  0  0  0  0  0  0  0
   13.7444   41.7699    7.5725 H   0  0  0  0  0  0  0  0  0  0  0  0
   13.7414   37.0785   11.6931 H   0  0  0  0  0  0  0  0  0  0  0  0
   12.8289   36.9440   10.1517 H   0  0  0  0  0  0  0  0  0  0  0  0
   14.6189   36.7944   10.1517 H   0  0  0  0  0  0  0  0  0  0  0  0
   14.0839   40.0746   12.0333 H   0  0  0  0  0  0  0  0  0  0  0  0
   12.6611   40.3607   10.9394 H   0  0  0  0  0  0  0  0  0  0  0  0
   12.1946   37.2018   16.0679 H   0  0  0  0  0  0  0  0  0  0  0  0
   10.5387   37.9969   16.0072 H   0  0  0  0  0  0  0  0  0  0  0  0
   12.1945   34.8278   14.6902 H   0  0  0  0  0  0  0  0  0  0  0  0
   11.0754   32.5998   14.7986 H   0  0  0  0  0  0  0  0  0  0  0  0
    8.7787   32.3929   15.7736 H   0  0  0  0  0  0  0  0  0  0  0  0
    6.8348   33.3931   16.8026 H   0  0  0  0  0  0  0  0  0  0  0  0
    5.6229   35.4010   17.6833 H   0  0  0  0  0  0  0  0  0  0  0  0
    6.7142   37.6559   17.5979 H   0  0  0  0  0  0  0  0  0  0  0  0
    9.0061   37.9089   16.6312 H   0  0  0  0  0  0  0  0  0  0  0  0
    9.1152   36.1533   13.9109 H   0  0  0  0  0  0  0  0  0  0  0  0
    7.9475   35.9025   11.7066 H   0  0  0  0  0  0  0  0  0  0  0  0
   10.8972   38.4863    9.8556 H   0  0  0  0  0  0  0  0  0  0  0  0
  1  2  1  0
  2  3  1  0
  3  4  1  0
  4  5  2  0
  4  6  1  0
  6  7  1  0
  6  8  1  0
  8  9  1  0
  9 10  2  0
 10 11  1  0
 11 12  2  0
 11 13  1  0
 10 14  1  0
 14 15  1  0
 15 16  1  0
 16 17  2  0
 17 18  1  0
 18 19  2  0
 19 20  1  0
 20 21  2  0
 21 22  1  0
 22 23  2  0
 23 24  1  0
 24 25  2  0
 14 26  1  0
 26 27  2  0
 27 28  1  0
 28 29  2  0
 29 30  1  0
 29 31  1  0
 31 32  2  0
 32  9  1  0
 25 16  1  0
 32 26  1  0
 25 20  1  0
  1 33  1  0
  1 34  1  0
  1 35  1  0
  2 36  1  0
  2 37  1  0
  7 38  1  0
  7 39  1  0
  7 40  1  0
  8 41  1  0
  8 42  1  0
 15 43  1  0
 15 44  1  0
 17 45  1  0
 18 46  1  0
 19 47  1  0
 21 48  1  0
 22 49  1  0
 23 50  1  0
 24 51  1  0
 27 52  1  0
 28 53  1  0
 31 54  1  0
M  CHG  1  13  -1
M  END
>  <meeko>  (49) 
{"free_energy": -6.12, "intermolecular_energy": -8.5, "internal_energy": -1.54, "cluster_size": 191, "cluster_id": 13, "rank_in_cluster": 38}

$$$$

     RDKit          3D

 54 57  0  0  0  0  0  0  0  0999 V2000
   13.3310   42.1600    6.9700 C   0  0  0  0  0  0  0  0  0  0  0  0
   13.7530   40.7030    7.1780 C   0  0  0  0  0  0  0  0  0  0  0  0
   13.6770   40.3880    8.5590 O   0  0  0  0  0  0  0  0  0  0  0  0
   12.5200   39.9360    9.0870 C   0  0  0  0  0  0  0  0  0  0  0  0
   11.9780   38.8870    8.7350 O   0  0  0  0  0  0  0  0  0  0  0  0
   12.0520   40.8160   10.0720 N   0  0  0  0  0  0  0  0  0  0  0  0
   11.2110   41.9730    9.7480 C   0  0  0  0  0  0  0  0  0  0  0  0
   12.4090   40.6370   11.4850 C   0  0  0  0  0  0  0  0  0  0  0  0
   11.6500   39.5000   12.1280 C   0  0  0  0  0  0  0  0  0  0  0  0
   11.9460   38.8060   13.2880 C   0  0  0  0  0  0  0  0  0  0  0  0
   13.0730   38.9990   14.2530 C   0  0  0  0  0  0  0  0  0  0  0  0
   13.3470   38.0750   15.0490 O   0  0  0  0  0  0  0  0  0  0  0  0
   13.7150   40.0710   14.2760 O   0  0  0  0  0  1  0  0  0  0  0  0
   10.9880   37.7850   13.4630 N   0  0  0  0  0  0  0  0  0  0  0  0
   10.8890   36.8060   14.5500 C   0  0  0  0  0  0  0  0  0  0  0  0
   10.0440   37.2570   15.7490 C   0  0  0  0  0  0  0  0  0  0  0  0
   10.2600   38.5200   16.3560 C   0  0  0  0  0  0  0  0  0  0  0  0
    9.4880   38.9370   17.4530 C   0  0  0  0  0  0  0  0  0  0  0  0
    8.4870   38.0980   17.9670 C   0  0  0  0  0  0  0  0  0  0  0  0
    8.2540   36.8390   17.3830 C   0  0  0  0  0  0  0  0  0  0  0  0
    7.2440   36.0090   17.9120 C   0  0  0  0  0  0  0  0  0  0  0  0
    6.9940   34.7460   17.3450 C   0  0  0  0  0  0  0  0  0  0  0  0
    7.7550   34.3110   16.2460 C   0  0  0  0  0  0  0  0  0  0  0  0
    8.7650   35.1350   15.7130 C   0  0  0  0  0  0  0  0  0  0  0  0
    9.0300   36.4090   16.2720 C   0  0  0  0  0  0  0  0  0  0  0  0
   10.0790   37.8250   12.4150 C   0  0  0  0  0  0  0  0  0  0  0  0
    8.9560   37.0270   12.1130 C   0  0  0  0  0  0  0  0  0  0  0  0
    8.1900   37.2990   10.9680 C   0  0  0  0  0  0  0  0  0  0  0  0
    8.5480   38.3690   10.1290 C   0  0  0  0  0  0  0  0  0  0  0  0
    7.8110   38.6390    9.0250 F   0  0  0  0  0  0  0  0  0  0  0  0
    9.6720   39.1590   10.4340 C   0  0  0  0  0  0  0  0  0  0  0  0
   10.4680   38.9050   11.5780 C   0  0  0  0  0  0  0  0  0  0  0  0
   13.1907   42.6443    7.9477 H   0  0  0  0  0  0  0  0  0  0  0  0
   14.1122   42.6911    6.4064 H   0  0  0  0  0  0  0  0  0  0  0  0
   12.3868   42.1914    6.4064 H   0  0  0  0  0  0  0  0  0  0  0  0
   13.0811   40.0410    6.6121 H   0  0  0  0  0  0  0  0  0  0  0  0
   14.7847   40.5628    6.8232 H   0  0  0  0  0  0  0  0  0  0  0  0
   10.8660   42.4476   10.6785 H   0  0  0  0  0  0  0  0  0  0  0  0
   11.7946   42.6977    9.1613 H   0  0  0  0  0  0  0  0  0  0  0  0
   10.3416   41.6415    9.1613 H   0  0  0  0  0  0  0  0  0  0  0  0
   13.4865   40.4268   11.5538 H   0  0  0  0  0  0  0  0  0  0  0  0
   12.1456   41.5621   12.0187 H   0  0  0  0  0  0  0  0  0  0  0  0
   10.4419   35.8871   14.1429 H   0  0  0  0  0  0  0  0  0  0  0  0
   11.9113   36.6610   14.9294 H   0  0  0  0  0  0  0  0  0  0  0  0
   11.0440   39.1834   15.9619 H   0  0  0  0  0  0  0  0  0  0  0  0
    9.6680   39.9215   17.9094 H   0  0  0  0  0  0  0  0  0  0  0  0
    7.8841   38.4249   18.8271 H   0  0  0  0  0  0  0  0  0  0  0  0
    6.6490   36.3507   18.7718 H   0  0  0  0  0  0  0  0  0  0  0  0
    6.2056   34.1010   17.7603 H   0  0  0  0  0  0  0  0  0  0  0  0
    7.5610   33.3239   15.8010 H   0  0  0  0  0  0  0  0  0  0  0  0
    9.3547   34.7852   14.8528 H   0  0  0  0  0  0  0  0  0  0  0  0
    8.6804   36.1921   12.7740 H   0  0  0  0  0  0  0  0  0  0  0  0
    7.3142   36.6780   10.7286 H   0  0  0  0  0  0  0  0  0  0  0  0
    9.9387   39.9933    9.7685 H   0  0  0  0  0  0  0  0  0  0  0  0
  1  2  1  0
  2  3  1  0
  3  4  1  0
  4  5  2  0
  4  6  1  0
  6  7  1  0
  6  8  1  0
  8  9  1  0
  9 10  2  0
 10 11  1  0
 11 12  2  0
 11 13  1  0
 10 14  1  0
 14 15  1  0
 15 16  1  0
 16 17  2  0
 17 18  1  0
 18 19  2  0
 19 20  1  0
 20 21  2  0
 21 22  1  0
 22 23  2  0
 23 24  1  0
 24 25  2  0
 14 26  1  0
 26 27  2  0
 27 28  1  0
 28 29  2  0
 29 30  1  0
 29 31  1  0
 31 32  2  0
 32  9  1  0
 25 16  1  0
 32 26  1  0
 25 20  1  0
  1 33  1  0
  1 34  1  0
  1 35  1  0
  2 36  1  0
  2 37  1  0
  7 38  1  0
  7 39  1  0
  7 40  1  0
  8 41  1  0
  8 42  1  0
 15 43  1  0
 15 44  1  0
 17 45  1  0
 18 46  1  0
 19 47  1  0
 21 48  1  0
 22 49  1  0
 23 50  1  0
 24 51  1  0
 27 52  1  0
 28 53  1  0
 31 54  1  0
M  CHG  1  13  -1
M  END
>  <meeko>  (50) 
{"free_energy": -5.74, "intermolecular_energy": -8.12, "internal_energy": -1.66, "cluster_size": 18, "cluster_id": 48, "rank_in_cluster": 3}

$$$$

     RDKit          3D

 54 57  0  0  0  0  0  0  0  0999 V2000
    7.7740   32.9070   15.0940 C   0  0  0  0  0  0  0  0  0  0  0  0
    8.9470   33.8630   14.8630 C   0  0  0  0  0  0  0  0  0  0  0  0
    8.4440   35.1580   14.5760 O   0  0  0  0  0  0  0  0  0  0  0  0
    9.1150   36.2520   14.9940 C   0  0  0  0  0  0  0  0  0  0  0  0
    8.8290   36.8720   16.0200 O   0  0  0  0  0  0  0  0  0  0  0  0
   10.1590   36.5550   14.1110 N   0  0  0  0  0  0  0  0  0  0  0  0
   11.3340   37.3300   14.5280 C   0  0  0  0  0  0  0  0  0  0  0  0
   10.1140   36.1340   12.7050 C   0  0  0  0  0  0  0  0  0  0  0  0
    9.5660   37.2140   11.8010 C   0  0  0  0  0  0  0  0  0  0  0  0
    9.5070   38.5790   12.0190 C   0  0  0  0  0  0  0  0  0  0  0  0
    9.9940   39.3800   13.1850 C   0  0  0  0  0  0  0  0  0  0  0  0
    9.2540   39.4950   14.1860 O   0  0  0  0  0  0  0  0  0  0  0  0
   11.1110   39.9400   13.1500 O   0  0  0  0  0  1  0  0  0  0  0  0
    8.8530   39.1860   10.9260 N   0  0  0  0  0  0  0  0  0  0  0  0
    8.5690   40.6070   10.7100 C   0  0  0  0  0  0  0  0  0  0  0  0
    9.6840   41.5630   11.1550 C   0  0  0  0  0  0  0  0  0  0  0  0
    9.4320   42.5760   12.1140 C   0  0  0  0  0  0  0  0  0  0  0  0
   10.4510   43.4530   12.5250 C   0  0  0  0  0  0  0  0  0  0  0  0
   11.7410   43.3350   11.9820 C   0  0  0  0  0  0  0  0  0  0  0  0
   12.0150   42.3380   11.0270 C   0  0  0  0  0  0  0  0  0  0  0  0
   13.3160   42.2340   10.4920 C   0  0  0  0  0  0  0  0  0  0  0  0
   13.6130   41.2470    9.5370 C   0  0  0  0  0  0  0  0  0  0  0  0
   12.6080   40.3590    9.1130 C   0  0  0  0  0  0  0  0  0  0  0  0
   11.3070   40.4570    9.6430 C   0  0  0  0  0  0  0  0  0  0  0  0
   10.9910   41.4460   10.6070 C   0  0  0  0  0  0  0  0  0  0  0  0
    8.4930   38.2080   10.0070 C   0  0  0  0  0  0  0  0  0  0  0  0
    7.8170   38.2820    8.7720 C   0  0  0  0  0  0  0  0  0  0  0  0
    7.5880   37.1130    8.0270 C   0  0  0  0  0  0  0  0  0  0  0  0
    8.0370   35.8750    8.5190 C   0  0  0  0  0  0  0  0  0  0  0  0
    7.8230   34.7450    7.8040 F   0  0  0  0  0  0  0  0  0  0  0  0
    8.7090   35.8090    9.7550 C   0  0  0  0  0  0  0  0  0  0  0  0
    8.9480   36.9680   10.5310 C   0  0  0  0  0  0  0  0  0  0  0  0
    7.6143   32.7769   16.1745 H   0  0  0  0  0  0  0  0  0  0  0  0
    6.8650   33.3248   14.6367 H   0  0  0  0  0  0  0  0  0  0  0  0
    7.9998   31.9324   14.6367 H   0  0  0  0  0  0  0  0  0  0  0  0
    9.5723   33.9033   15.7671 H   0  0  0  0  0  0  0  0  0  0  0  0
    9.5533   33.5063   14.0173 H   0  0  0  0  0  0  0  0  0  0  0  0
   11.3816   37.3614   15.6265 H   0  0  0  0  0  0  0  0  0  0  0  0
   12.2449   36.8549   14.1350 H   0  0  0  0  0  0  0  0  0  0  0  0
   11.2559   38.3544   14.1350 H   0  0  0  0  0  0  0  0  0  0  0  0
   11.1338   35.8826   12.3781 H   0  0  0  0  0  0  0  0  0  0  0  0
    9.4442   35.2642   12.6351 H   0  0  0  0  0  0  0  0  0  0  0  0
    8.3953   40.7613    9.6348 H   0  0  0  0  0  0  0  0  0  0  0  0
    7.6925   40.8446   11.3308 H   0  0  0  0  0  0  0  0  0  0  0  0
    8.4242   42.6774   12.5430 H   0  0  0  0  0  0  0  0  0  0  0  0
   10.2380   44.2318   13.2720 H   0  0  0  0  0  0  0  0  0  0  0  0
   12.5376   44.0222   12.3033 H   0  0  0  0  0  0  0  0  0  0  0  0
   14.1016   42.9287   10.8239 H   0  0  0  0  0  0  0  0  0  0  0  0
   14.6288   41.1690    9.1221 H   0  0  0  0  0  0  0  0  0  0  0  0
   12.8389   39.5859    8.3654 H   0  0  0  0  0  0  0  0  0  0  0  0
   10.5277   39.7582    9.3049 H   0  0  0  0  0  0  0  0  0  0  0  0
    7.4692   39.2540    8.3921 H   0  0  0  0  0  0  0  0  0  0  0  0
    7.0600   37.1662    7.0635 H   0  0  0  0  0  0  0  0  0  0  0  0
    9.0563   34.8334   10.1259 H   0  0  0  0  0  0  0  0  0  0  0  0
  1  2  1  0
  2  3  1  0
  3  4  1  0
  4  5  2  0
  4  6  1  0
  6  7  1  0
  6  8  1  0
  8  9  1  0
  9 10  2  0
 10 11  1  0
 11 12  2  0
 11 13  1  0
 10 14  1  0
 14 15  1  0
 15 16  1  0
 16 17  2  0
 17 18  1  0
 18 19  2  0
 19 20  1  0
 20 21  2  0
 21 22  1  0
 22 23  2  0
 23 24  1  0
 24 25  2  0
 14 26  1  0
 26 27  2  0
 27 28  1  0
 28 29  2  0
 29 30  1  0
 29 31  1  0
 31 32  2  0
 32  9  1  0
 25 16  1  0
 32 26  1  0
 25 20  1  0
  1 33  1  0
  1 34  1  0
  1 35  1  0
  2 36  1  0
  2 37  1  0
  7 38  1  0
  7 39  1  0
  7 40  1  0
  8 41  1  0
  8 42  1  0
 15 43  1  0
 15 44  1  0
 17 45  1  0
 18 46  1  0
 19 47  1  0
 21 48  1  0
 22 49  1  0
 23 50  1  0
 24 51  1  0
 27 52  1  0
 28 53  1  0
 31 54  1  0
M  CHG  1  13  -1
M  END
>  <meeko>  (51) 
{"free_energy": -6.85, "intermolecular_energy": -9.24, "internal_energy": -1.48, "cluster_size": 318, "cluster_id": 5, "rank_in_cluster": 29}

$$$$

     RDKit          3D

 54 57  0  0  0  0  0  0  0  0999 V2000
   12.5980   41.0060   13.0270 C   0  0  0  0  0  0  0  0  0  0  0  0
   12.2470   42.3980   12.4960 C   0  0  0  0  0  0  0  0  0  0  0  0
   10.8940   42.6880   12.8040 O   0  0  0  0  0  0  0  0  0  0  0  0
    9.9640   41.7100   12.7540 C   0  0  0  0  0  0  0  0  0  0  0  0
    9.8050   40.8810   13.6520 O   0  0  0  0  0  0  0  0  0  0  0  0
    9.2300   41.7890   11.5640 N   0  0  0  0  0  0  0  0  0  0  0  0
    7.7630   41.7990   11.5520 C   0  0  0  0  0  0  0  0  0  0  0  0
    9.8990   41.8380   10.2580 C   0  0  0  0  0  0  0  0  0  0  0  0
   10.8640   40.6920   10.0660 C   0  0  0  0  0  0  0  0  0  0  0  0
   12.1260   40.7070    9.4990 C   0  0  0  0  0  0  0  0  0  0  0  0
   12.9110   41.8560    8.9490 C   0  0  0  0  0  0  0  0  0  0  0  0
   13.8240   42.3480    9.6450 O   0  0  0  0  0  0  0  0  0  0  0  0
   12.6440   42.3270    7.8210 O   0  0  0  0  0  1  0  0  0  0  0  0
   12.6300   39.3890    9.4760 N   0  0  0  0  0  0  0  0  0  0  0  0
   13.9260   38.9180    8.9800 C   0  0  0  0  0  0  0  0  0  0  0  0
   15.0070   38.7530   10.0570 C   0  0  0  0  0  0  0  0  0  0  0  0
   15.5810   39.8840   10.6900 C   0  0  0  0  0  0  0  0  0  0  0  0
   16.5710   39.7370   11.6760 C   0  0  0  0  0  0  0  0  0  0  0  0
   17.0080   38.4550   12.0470 C   0  0  0  0  0  0  0  0  0  0  0  0
   16.4550   37.3160   11.4320 C   0  0  0  0  0  0  0  0  0  0  0  0
   16.9060   36.0360   11.8170 C   0  0  0  0  0  0  0  0  0  0  0  0
   16.3680   34.8850   11.2160 C   0  0  0  0  0  0  0  0  0  0  0  0
   15.3750   35.0110   10.2280 C   0  0  0  0  0  0  0  0  0  0  0  0
   14.9210   36.2850    9.8380 C   0  0  0  0  0  0  0  0  0  0  0  0
   15.4520   37.4560   10.4340 C   0  0  0  0  0  0  0  0  0  0  0  0
   11.6890   38.5300   10.0280 C   0  0  0  0  0  0  0  0  0  0  0  0
   11.6930   37.1330   10.2250 C   0  0  0  0  0  0  0  0  0  0  0  0
   10.5890   36.5080   10.8280 C   0  0  0  0  0  0  0  0  0  0  0  0
    9.4860   37.2800   11.2340 C   0  0  0  0  0  0  0  0  0  0  0  0
    8.4210   36.6830   11.8190 F   0  0  0  0  0  0  0  0  0  0  0  0
    9.4890   38.6740   11.0310 C   0  0  0  0  0  0  0  0  0  0  0  0
   10.5830   39.3310   10.4190 C   0  0  0  0  0  0  0  0  0  0  0  0
   12.5941   41.0214   14.1269 H   0  0  0  0  0  0  0  0  0  0  0  0
   11.8552   40.2785   12.6679 H   0  0  0  0  0  0  0  0  0  0  0  0
   13.5970   40.7177   12.6679 H   0  0  0  0  0  0  0  0  0  0  0  0
   12.9002   43.1469   12.9677 H   0  0  0  0  0  0  0  0  0  0  0  0
   12.3912   42.4243   11.4058 H   0  0  0  0  0  0  0  0  0  0  0  0
    7.3879   41.8016   12.5861 H   0  0  0  0  0  0  0  0  0  0  0  0
    7.4067   42.6996   11.0305 H   0  0  0  0  0  0  0  0  0  0  0  0
    7.3945   40.9033   11.0305 H   0  0  0  0  0  0  0  0  0  0  0  0
    9.1355   41.7940    9.4674 H   0  0  0  0  0  0  0  0  0  0  0  0
   10.4740   42.7745   10.2089 H   0  0  0  0  0  0  0  0  0  0  0  0
   13.7730   37.9418    8.4966 H   0  0  0  0  0  0  0  0  0  0  0  0
   14.2928   39.6919    8.2897 H   0  0  0  0  0  0  0  0  0  0  0  0
   15.2462   40.8923   10.4048 H   0  0  0  0  0  0  0  0  0  0  0  0
   17.0039   40.6263   12.1575 H   0  0  0  0  0  0  0  0  0  0  0  0
   17.7832   38.3408   12.8190 H   0  0  0  0  0  0  0  0  0  0  0  0
   17.6818   35.9383   12.5907 H   0  0  0  0  0  0  0  0  0  0  0  0
   16.7226   33.8883   11.5175 H   0  0  0  0  0  0  0  0  0  0  0  0
   14.9517   34.1108    9.7584 H   0  0  0  0  0  0  0  0  0  0  0  0
   14.1459   36.3726    9.0624 H   0  0  0  0  0  0  0  0  0  0  0  0
   12.5592   36.5342    9.9069 H   0  0  0  0  0  0  0  0  0  0  0  0
   10.5873   35.4188   10.9820 H   0  0  0  0  0  0  0  0  0  0  0  0
    8.6206   39.2658   11.3558 H   0  0  0  0  0  0  0  0  0  0  0  0
  1  2  1  0
  2  3  1  0
  3  4  1  0
  4  5  2  0
  4  6  1  0
  6  7  1  0
  6  8  1  0
  8  9  1  0
  9 10  2  0
 10 11  1  0
 11 12  2  0
 11 13  1  0
 10 14  1  0
 14 15  1  0
 15 16  1  0
 16 17  2  0
 17 18  1  0
 18 19  2  0
 19 20  1  0
 20 21  2  0
 21 22  1  0
 22 23  2  0
 23 24  1  0
 24 25  2  0
 14 26  1  0
 26 27  2  0
 27 28  1  0
 28 29  2  0
 29 30  1  0
 29 31  1  0
 31 32  2  0
 32  9  1  0
 25 16  1  0
 32 26  1  0
 25 20  1  0
  1 33  1  0
  1 34  1  0
  1 35  1  0
  2 36  1  0
  2 37  1  0
  7 38  1  0
  7 39  1  0
  7 40  1  0
  8 41  1  0
  8 42  1  0
 15 43  1  0
 15 44  1  0
 17 45  1  0
 18 46  1  0
 19 47  1  0
 21 48  1  0
 22 49  1  0
 23 50  1  0
 24 51  1  0
 27 52  1  0
 28 53  1  0
 31 54  1  0
M  CHG  1  13  -1
M  END
>  <meeko>  (52) 
{"free_energy": -4.59, "intermolecular_energy": -6.98, "internal_energy": -2.51, "cluster_size": 35, "cluster_id": 184, "rank_in_cluster": 9}

$$$$

     RDKit          3D

 54 57  0  0  0  0  0  0  0  0999 V2000
    9.2470   38.0990   18.3440 C   0  0  0  0  0  0  0  0  0  0  0  0
   10.2970   38.1010   19.4570 C   0  0  0  0  0  0  0  0  0  0  0  0
   11.3740   38.9440   19.0820 O   0  0  0  0  0  0  0  0  0  0  0  0
   12.6430   38.4870   19.1420 C   0  0  0  0  0  0  0  0  0  0  0  0
   13.0010   37.5750   19.8900 O   0  0  0  0  0  0  0  0  0  0  0  0
   13.4600   39.1850   18.2430 N   0  0  0  0  0  0  0  0  0  0  0  0
   14.9000   39.3550   18.4670 C   0  0  0  0  0  0  0  0  0  0  0  0
   12.9030   39.8100   17.0360 C   0  0  0  0  0  0  0  0  0  0  0  0
   12.0300   38.8610   16.2490 C   0  0  0  0  0  0  0  0  0  0  0  0
   10.9280   39.1460   15.4630 C   0  0  0  0  0  0  0  0  0  0  0  0
   10.3050   40.4670   15.1370 C   0  0  0  0  0  0  0  0  0  0  0  0
    9.2820   40.8190   15.7620 O   0  0  0  0  0  0  0  0  0  0  0  0
   10.7890   41.1950   14.2430 O   0  0  0  0  0  1  0  0  0  0  0  0
   10.3920   37.9350   14.9750 N   0  0  0  0  0  0  0  0  0  0  0  0
    9.2340   37.7400   14.0980 C   0  0  0  0  0  0  0  0  0  0  0  0
    9.5780   37.4680   12.6280 C   0  0  0  0  0  0  0  0  0  0  0  0
    9.8890   36.1580   12.1850 C   0  0  0  0  0  0  0  0  0  0  0  0
   10.2050   35.9040   10.8390 C   0  0  0  0  0  0  0  0  0  0  0  0
   10.2170   36.9570    9.9100 C   0  0  0  0  0  0  0  0  0  0  0  0
    9.9130   38.2670   10.3250 C   0  0  0  0  0  0  0  0  0  0  0  0
    9.9300   39.3120    9.3790 C   0  0  0  0  0  0  0  0  0  0  0  0
    9.6300   40.6290    9.7710 C   0  0  0  0  0  0  0  0  0  0  0  0
    9.3110   40.9030   11.1130 C   0  0  0  0  0  0  0  0  0  0  0  0
    9.2930   39.8640   12.0630 C   0  0  0  0  0  0  0  0  0  0  0  0
    9.5920   38.5320   11.6850 C   0  0  0  0  0  0  0  0  0  0  0  0
   11.1520   36.8740   15.4500 C   0  0  0  0  0  0  0  0  0  0  0  0
   11.0340   35.4800   15.2730 C   0  0  0  0  0  0  0  0  0  0  0  0
   11.9650   34.6160   15.8730 C   0  0  0  0  0  0  0  0  0  0  0  0
   13.0110   35.1480   16.6460 C   0  0  0  0  0  0  0  0  0  0  0  0
   13.9140   34.3210   17.2240 F   0  0  0  0  0  0  0  0  0  0  0  0
   13.1200   36.5410   16.8220 C   0  0  0  0  0  0  0  0  0  0  0  0
   12.1930   37.4370   16.2360 C   0  0  0  0  0  0  0  0  0  0  0  0
    8.2410   38.0971   18.7890 H   0  0  0  0  0  0  0  0  0  0  0  0
    9.3709   38.9974   17.7215 H   0  0  0  0  0  0  0  0  0  0  0  0
    9.3743   37.2011   17.7215 H   0  0  0  0  0  0  0  0  0  0  0  0
    9.8452   38.4738   20.3881 H   0  0  0  0  0  0  0  0  0  0  0  0
   10.6676   37.0777   19.6166 H   0  0  0  0  0  0  0  0  0  0  0  0
   15.1026   39.3789   19.5479 H   0  0  0  0  0  0  0  0  0  0  0  0
   15.4438   38.5148   18.0105 H   0  0  0  0  0  0  0  0  0  0  0  0
   15.2332   40.2987   18.0105 H   0  0  0  0  0  0  0  0  0  0  0  0
   12.2999   40.6802   17.3345 H   0  0  0  0  0  0  0  0  0  0  0  0
   13.7441   40.1057   16.3918 H   0  0  0  0  0  0  0  0  0  0  0  0
    8.6571   36.8841   14.4783 H   0  0  0  0  0  0  0  0  0  0  0  0
    8.6711   38.6849   14.1142 H   0  0  0  0  0  0  0  0  0  0  0  0
    9.8830   35.3271   12.9058 H   0  0  0  0  0  0  0  0  0  0  0  0
   10.4428   34.8805   10.5135 H   0  0  0  0  0  0  0  0  0  0  0  0
   10.4643   36.7577    8.8568 H   0  0  0  0  0  0  0  0  0  0  0  0
   10.1790   39.0964    8.3295 H   0  0  0  0  0  0  0  0  0  0  0  0
    9.6448   41.4421    9.0303 H   0  0  0  0  0  0  0  0  0  0  0  0
    9.0748   41.9321   11.4214 H   0  0  0  0  0  0  0  0  0  0  0  0
    9.0440   40.0892   13.1105 H   0  0  0  0  0  0  0  0  0  0  0  0
   10.2138   35.0696   14.6657 H   0  0  0  0  0  0  0  0  0  0  0  0
   11.8756   33.5279   15.7384 H   0  0  0  0  0  0  0  0  0  0  0  0
   13.9447   36.9426   17.4290 H   0  0  0  0  0  0  0  0  0  0  0  0
  1  2  1  0
  2  3  1  0
  3  4  1  0
  4  5  2  0
  4  6  1  0
  6  7  1  0
  6  8  1  0
  8  9  1  0
  9 10  2  0
 10 11  1  0
 11 12  2  0
 11 13  1  0
 10 14  1  0
 14 15  1  0
 15 16  1  0
 16 17  2  0
 17 18  1  0
 18 19  2  0
 19 20  1  0
 20 21  2  0
 21 22  1  0
 22 23  2  0
 23 24  1  0
 24 25  2  0
 14 26  1  0
 26 27  2  0
 27 28  1  0
 28 29  2  0
 29 30  1  0
 29 31  1  0
 31 32  2  0
 32  9  1  0
 25 16  1  0
 32 26  1  0
 25 20  1  0
  1 33  1  0
  1 34  1  0
  1 35  1  0
  2 36  1  0
  2 37  1  0
  7 38  1  0
  7 39  1  0
  7 40  1  0
  8 41  1  0
  8 42  1  0
 15 43  1  0
 15 44  1  0
 17 45  1  0
 18 46  1  0
 19 47  1  0
 21 48  1  0
 22 49  1  0
 23 50  1  0
 24 51  1  0
 27 52  1  0
 28 53  1  0
 31 54  1  0
M  CHG  1  13  -1
M  END
>  <meeko>  (53) 
{"free_energy": -4.26, "intermolecular_energy": -6.64, "internal_energy": -2.21, "cluster_size": 66, "cluster_id": 61, "rank_in_cluster": 62}

$$$$

     RDKit          3D

 54 57  0  0  0  0  0  0  0  0999 V2000
    4.1910   38.0950   17.4840 C   0  0  0  0  0  0  0  0  0  0  0  0
    4.7670   36.7570   17.0150 C   0  0  0  0  0  0  0  0  0  0  0  0
    6.0420   36.9760   16.4330 O   0  0  0  0  0  0  0  0  0  0  0  0
    7.1530   36.9220   17.1990 C   0  0  0  0  0  0  0  0  0  0  0  0
    7.6760   37.9170   17.7050 O   0  0  0  0  0  0  0  0  0  0  0  0
    7.5980   35.6000   17.3280 N   0  0  0  0  0  0  0  0  0  0  0  0
    6.6720   34.4840   17.5490 C   0  0  0  0  0  0  0  0  0  0  0  0
    9.0280   35.2690   17.2770 C   0  0  0  0  0  0  0  0  0  0  0  0
    9.7390   35.9790   16.1480 C   0  0  0  0  0  0  0  0  0  0  0  0
    9.5390   35.8560   14.7850 C   0  0  0  0  0  0  0  0  0  0  0  0
    8.5460   35.0220   14.0380 C   0  0  0  0  0  0  0  0  0  0  0  0
    8.1010   35.4480   12.9500 O   0  0  0  0  0  0  0  0  0  0  0  0
    8.1560   33.9290   14.5020 O   0  0  0  0  0  1  0  0  0  0  0  0
   10.4790   36.6660   14.1130 N   0  0  0  0  0  0  0  0  0  0  0  0
   10.6430   36.8650   12.6700 C   0  0  0  0  0  0  0  0  0  0  0  0
    9.9910   38.1390   12.1160 C   0  0  0  0  0  0  0  0  0  0  0  0
   10.0740   39.3640   12.8240 C   0  0  0  0  0  0  0  0  0  0  0  0
    9.4790   40.5330   12.3210 C   0  0  0  0  0  0  0  0  0  0  0  0
    8.7850   40.4990   11.1000 C   0  0  0  0  0  0  0  0  0  0  0  0
    8.6860   39.2940   10.3790 C   0  0  0  0  0  0  0  0  0  0  0  0
    7.9860   39.2780    9.1560 C   0  0  0  0  0  0  0  0  0  0  0  0
    7.8740   38.0850    8.4190 C   0  0  0  0  0  0  0  0  0  0  0  0
    8.4640   36.9050    8.9050 C   0  0  0  0  0  0  0  0  0  0  0  0
    9.1640   36.9140   10.1260 C   0  0  0  0  0  0  0  0  0  0  0  0
    9.2870   38.1070   10.8810 C   0  0  0  0  0  0  0  0  0  0  0  0
   11.2820   37.3070   15.0470 C   0  0  0  0  0  0  0  0  0  0  0  0
   12.3640   38.1990   14.9020 C   0  0  0  0  0  0  0  0  0  0  0  0
   13.0050   38.7140   16.0410 C   0  0  0  0  0  0  0  0  0  0  0  0
   12.5620   38.3370   17.3200 C   0  0  0  0  0  0  0  0  0  0  0  0
   13.1740   38.8330   18.4220 F   0  0  0  0  0  0  0  0  0  0  0  0
   11.4830   37.4420   17.4570 C   0  0  0  0  0  0  0  0  0  0  0  0
   10.8210   36.9010   16.3280 C   0  0  0  0  0  0  0  0  0  0  0  0
    4.1787   38.1236   18.5836 H   0  0  0  0  0  0  0  0  0  0  0  0
    4.8151   38.9167   17.1028 H   0  0  0  0  0  0  0  0  0  0  0  0
    3.1652   38.2064   17.1028 H   0  0  0  0  0  0  0  0  0  0  0  0
    4.8668   36.0779   17.8746 H   0  0  0  0  0  0  0  0  0  0  0  0
    4.0940   36.3055   16.2712 H   0  0  0  0  0  0  0  0  0  0  0  0
    6.5403   34.3253   18.6295 H   0  0  0  0  0  0  0  0  0  0  0  0
    5.6995   34.7184   17.0916 H   0  0  0  0  0  0  0  0  0  0  0  0
    7.0818   33.5714   17.0916 H   0  0  0  0  0  0  0  0  0  0  0  0
    9.4937   35.5629   18.2292 H   0  0  0  0  0  0  0  0  0  0  0  0
    9.1178   34.1863   17.1044 H   0  0  0  0  0  0  0  0  0  0  0  0
   11.7201   36.9093   12.4513 H   0  0  0  0  0  0  0  0  0  0  0  0
   10.1344   36.0205   12.1820 H   0  0  0  0  0  0  0  0  0  0  0  0
   10.6127   39.4000   13.7824 H   0  0  0  0  0  0  0  0  0  0  0  0
    9.5565   41.4752   12.8833 H   0  0  0  0  0  0  0  0  0  0  0  0
    8.3187   41.4145   10.7071 H   0  0  0  0  0  0  0  0  0  0  0  0
    7.5254   40.2019    8.7762 H   0  0  0  0  0  0  0  0  0  0  0  0
    7.3263   38.0754    7.4651 H   0  0  0  0  0  0  0  0  0  0  0  0
    8.3782   35.9717    8.3291 H   0  0  0  0  0  0  0  0  0  0  0  0
    9.6205   35.9850   10.4983 H   0  0  0  0  0  0  0  0  0  0  0  0
   12.7059   38.4914   13.8982 H   0  0  0  0  0  0  0  0  0  0  0  0
   13.8502   39.4095   15.9320 H   0  0  0  0  0  0  0  0  0  0  0  0
   11.1466   37.1566   18.4647 H   0  0  0  0  0  0  0  0  0  0  0  0
  1  2  1  0
  2  3  1  0
  3  4  1  0
  4  5  2  0
  4  6  1  0
  6  7  1  0
  6  8  1  0
  8  9  1  0
  9 10  2  0
 10 11  1  0
 11 12  2  0
 11 13  1  0
 10 14  1  0
 14 15  1  0
 15 16  1  0
 16 17  2  0
 17 18  1  0
 18 19  2  0
 19 20  1  0
 20 21  2  0
 21 22  1  0
 22 23  2  0
 23 24  1  0
 24 25  2  0
 14 26  1  0
 26 27  2  0
 27 28  1  0
 28 29  2  0
 29 30  1  0
 29 31  1  0
 31 32  2  0
 32  9  1  0
 25 16  1  0
 32 26  1  0
 25 20  1  0
  1 33  1  0
  1 34  1  0
  1 35  1  0
  2 36  1  0
  2 37  1  0
  7 38  1  0
  7 39  1  0
  7 40  1  0
  8 41  1  0
  8 42  1  0
 15 43  1  0
 15 44  1  0
 17 45  1  0
 18 46  1  0
 19 47  1  0
 21 48  1  0
 22 49  1  0
 23 50  1  0
 24 51  1  0
 27 52  1  0
 28 53  1  0
 31 54  1  0
M  CHG  1  13  -1
M  END
>  <meeko>  (54) 
{"free_energy": -7.12, "intermolecular_energy": -9.51, "internal_energy": -1.73, "cluster_size": 163, "cluster_id": 4, "rank_in_cluster": 20}

$$$$

     RDKit          3D

 54 57  0  0  0  0  0  0  0  0999 V2000
   14.9130   41.2930   12.0350 C   0  0  0  0  0  0  0  0  0  0  0  0
   13.4420   40.9960   11.7310 C   0  0  0  0  0  0  0  0  0  0  0  0
   13.1400   41.4330   10.4160 O   0  0  0  0  0  0  0  0  0  0  0  0
   12.8700   40.5300    9.4490 C   0  0  0  0  0  0  0  0  0  0  0  0
   13.3480   40.5880    8.3150 O   0  0  0  0  0  0  0  0  0  0  0  0
   11.9940   39.5460    9.9250 N   0  0  0  0  0  0  0  0  0  0  0  0
   12.4400   38.1800   10.2170 C   0  0  0  0  0  0  0  0  0  0  0  0
   10.5670   39.8310   10.1300 C   0  0  0  0  0  0  0  0  0  0  0  0
    9.9060   38.8190   11.0360 C   0  0  0  0  0  0  0  0  0  0  0  0
    9.8650   38.7900   12.4190 C   0  0  0  0  0  0  0  0  0  0  0  0
   10.4250   39.7590   13.4100 C   0  0  0  0  0  0  0  0  0  0  0  0
   11.6440   39.7030   13.6820 O   0  0  0  0  0  0  0  0  0  0  0  0
    9.6850   40.5970   13.9710 O   0  0  0  0  0  1  0  0  0  0  0  0
    9.1890   37.6200   12.8290 N   0  0  0  0  0  0  0  0  0  0  0  0
    8.8950   37.1690   14.1920 C   0  0  0  0  0  0  0  0  0  0  0  0
    9.7570   35.9980   14.6840 C   0  0  0  0  0  0  0  0  0  0  0  0
    9.4080   34.6600   14.3750 C   0  0  0  0  0  0  0  0  0  0  0  0
   10.1950   33.5850   14.8240 C   0  0  0  0  0  0  0  0  0  0  0  0
   11.3450   33.8290   15.5910 C   0  0  0  0  0  0  0  0  0  0  0  0
   11.7120   35.1490   15.9120 C   0  0  0  0  0  0  0  0  0  0  0  0
   12.8700   35.3750   16.6840 C   0  0  0  0  0  0  0  0  0  0  0  0
   13.2550   36.6860   17.0170 C   0  0  0  0  0  0  0  0  0  0  0  0
   12.4820   37.7750   16.5770 C   0  0  0  0  0  0  0  0  0  0  0  0
   11.3240   37.5560   15.8060 C   0  0  0  0  0  0  0  0  0  0  0  0
   10.9220   36.2420   15.4620 C   0  0  0  0  0  0  0  0  0  0  0  0
    8.7990   36.9000   11.7070 C   0  0  0  0  0  0  0  0  0  0  0  0
    8.1170   35.6730   11.5680 C   0  0  0  0  0  0  0  0  0  0  0  0
    7.8370   35.1680   10.2870 C   0  0  0  0  0  0  0  0  0  0  0  0
    8.2380   35.8920    9.1500 C   0  0  0  0  0  0  0  0  0  0  0  0
    7.9680   35.4120    7.9130 F   0  0  0  0  0  0  0  0  0  0  0  0
    8.9220   37.1140    9.2970 C   0  0  0  0  0  0  0  0  0  0  0  0
    9.2240   37.6450   10.5750 C   0  0  0  0  0  0  0  0  0  0  0  0
   15.0634   41.3234   13.1242 H   0  0  0  0  0  0  0  0  0  0  0  0
   15.5439   40.5041   11.5996 H   0  0  0  0  0  0  0  0  0  0  0  0
   15.1884   42.2649   11.5996 H   0  0  0  0  0  0  0  0  0  0  0  0
   13.2613   39.9138   11.8096 H   0  0  0  0  0  0  0  0  0  0  0  0
   12.8016   41.5247   12.4523 H   0  0  0  0  0  0  0  0  0  0  0  0
   12.4874   38.0347   11.3063 H   0  0  0  0  0  0  0  0  0  0  0  0
   11.7298   37.4615    9.7819 H   0  0  0  0  0  0  0  0  0  0  0  0
   13.4374   38.0190    9.7819 H   0  0  0  0  0  0  0  0  0  0  0  0
   10.4666   40.8291   10.5814 H   0  0  0  0  0  0  0  0  0  0  0  0
   10.0693   39.7821    9.1502 H   0  0  0  0  0  0  0  0  0  0  0  0
    9.0501   38.0180   14.8740 H   0  0  0  0  0  0  0  0  0  0  0  0
    7.8570   36.8050   14.1800 H   0  0  0  0  0  0  0  0  0  0  0  0
    8.5081   34.4594   13.7750 H   0  0  0  0  0  0  0  0  0  0  0  0
    9.9095   32.5525   14.5742 H   0  0  0  0  0  0  0  0  0  0  0  0
   11.9602   32.9872   15.9416 H   0  0  0  0  0  0  0  0  0  0  0  0
   13.4747   34.5226   17.0272 H   0  0  0  0  0  0  0  0  0  0  0  0
   14.1585   36.8590   17.6201 H   0  0  0  0  0  0  0  0  0  0  0  0
   12.7826   38.8010   16.8357 H   0  0  0  0  0  0  0  0  0  0  0  0
   10.7253   38.4144   15.4673 H   0  0  0  0  0  0  0  0  0  0  0  0
    7.8048   35.1122   12.4613 H   0  0  0  0  0  0  0  0  0  0  0  0
    7.3067   34.2109   10.1741 H   0  0  0  0  0  0  0  0  0  0  0  0
    9.2290   37.6692    8.3984 H   0  0  0  0  0  0  0  0  0  0  0  0
  1  2  1  0
  2  3  1  0
  3  4  1  0
  4  5  2  0
  4  6  1  0
  6  7  1  0
  6  8  1  0
  8  9  1  0
  9 10  2  0
 10 11  1  0
 11 12  2  0
 11 13  1  0
 10 14  1  0
 14 15  1  0
 15 16  1  0
 16 17  2  0
 17 18  1  0
 18 19  2  0
 19 20  1  0
 20 21  2  0
 21 22  1  0
 22 23  2  0
 23 24  1  0
 24 25  2  0
 14 26  1  0
 26 27  2  0
 27 28  1  0
 28 29  2  0
 29 30  1  0
 29 31  1  0
 31 32  2  0
 32  9  1  0
 25 16  1  0
 32 26  1  0
 25 20  1  0
  1 33  1  0
  1 34  1  0
  1 35  1  0
  2 36  1  0
  2 37  1  0
  7 38  1  0
  7 39  1  0
  7 40  1  0
  8 41  1  0
  8 42  1  0
 15 43  1  0
 15 44  1  0
 17 45  1  0
 18 46  1  0
 19 47  1  0
 21 48  1  0
 22 49  1  0
 23 50  1  0
 24 51  1  0
 27 52  1  0
 28 53  1  0
 31 54  1  0
M  CHG  1  13  -1
M  END
>  <meeko>  (55) 
{"free_energy": -5.58, "intermolecular_energy": -7.97, "internal_energy": -2.07, "cluster_size": 130, "cluster_id": 32, "rank_in_cluster": 50}

$$$$

     RDKit          3D

 54 57  0  0  0  0  0  0  0  0999 V2000
    9.7320   45.4140   13.8920 C   0  0  0  0  0  0  0  0  0  0  0  0
   11.1870   45.8690   13.7570 C   0  0  0  0  0  0  0  0  0  0  0  0
   12.0220   44.9850   14.4860 O   0  0  0  0  0  0  0  0  0  0  0  0
   12.9620   44.2590   13.8440 C   0  0  0  0  0  0  0  0  0  0  0  0
   14.1710   44.3860   14.0450 O   0  0  0  0  0  0  0  0  0  0  0  0
   12.3650   43.3630   12.9490 N   0  0  0  0  0  0  0  0  0  0  0  0
   12.4800   43.5190   11.4950 C   0  0  0  0  0  0  0  0  0  0  0  0
   11.5610   42.2300   13.4270 C   0  0  0  0  0  0  0  0  0  0  0  0
   10.9850   41.4170   12.2920 C   0  0  0  0  0  0  0  0  0  0  0  0
    9.6850   41.3900   11.8170 C   0  0  0  0  0  0  0  0  0  0  0  0
    8.4910   42.1740   12.2620 C   0  0  0  0  0  0  0  0  0  0  0  0
    7.5970   42.4300   11.4280 O   0  0  0  0  0  0  0  0  0  0  0  0
    8.4000   42.5810   13.4410 O   0  0  0  0  0  1  0  0  0  0  0  0
    9.5990   40.4320   10.7840 N   0  0  0  0  0  0  0  0  0  0  0  0
    8.4300   40.0630    9.9810 C   0  0  0  0  0  0  0  0  0  0  0  0
    8.2310   38.5540    9.7880 C   0  0  0  0  0  0  0  0  0  0  0  0
    8.5590   37.6400   10.8200 C   0  0  0  0  0  0  0  0  0  0  0  0
    8.3780   36.2570   10.6480 C   0  0  0  0  0  0  0  0  0  0  0  0
    7.8680   35.7610    9.4370 C   0  0  0  0  0  0  0  0  0  0  0  0
    7.5360   36.6480    8.3960 C   0  0  0  0  0  0  0  0  0  0  0  0
    7.0250   36.1330    7.1870 C   0  0  0  0  0  0  0  0  0  0  0  0
    6.6870   37.0000    6.1320 C   0  0  0  0  0  0  0  0  0  0  0  0
    6.8600   38.3870    6.2860 C   0  0  0  0  0  0  0  0  0  0  0  0
    7.3700   38.9080    7.4900 C   0  0  0  0  0  0  0  0  0  0  0  0
    7.7150   38.0490    8.5630 C   0  0  0  0  0  0  0  0  0  0  0  0
   10.8440   39.8460   10.5980 C   0  0  0  0  0  0  0  0  0  0  0  0
   11.2860   38.8390    9.7150 C   0  0  0  0  0  0  0  0  0  0  0  0
   12.6300   38.4330    9.7320 C   0  0  0  0  0  0  0  0  0  0  0  0
   13.5290   39.0360   10.6300 C   0  0  0  0  0  0  0  0  0  0  0  0
   14.8270   38.6510   10.6480 F   0  0  0  0  0  0  0  0  0  0  0  0
   13.0790   40.0380   11.5110 C   0  0  0  0  0  0  0  0  0  0  0  0
   11.7290   40.4640   11.5220 C   0  0  0  0  0  0  0  0  0  0  0  0
    9.4707   45.3323   14.9574 H   0  0  0  0  0  0  0  0  0  0  0  0
    9.0717   46.1485   13.4078 H   0  0  0  0  0  0  0  0  0  0  0  0
    9.6078   44.4341   13.4078 H   0  0  0  0  0  0  0  0  0  0  0  0
   11.4784   45.8595   12.6964 H   0  0  0  0  0  0  0  0  0  0  0  0
   11.2933   46.8893   14.1542 H   0  0  0  0  0  0  0  0  0  0  0  0
   13.1187   44.3855   11.2686 H   0  0  0  0  0  0  0  0  0  0  0  0
   12.9267   42.6113   11.0630 H   0  0  0  0  0  0  0  0  0  0  0  0
   11.4808   43.6772   11.0630 H   0  0  0  0  0  0  0  0  0  0  0  0
   12.1990   41.5776   14.0413 H   0  0  0  0  0  0  0  0  0  0  0  0
   10.7214   42.6355   14.0106 H   0  0  0  0  0  0  0  0  0  0  0  0
    7.5341   40.4655   10.4762 H   0  0  0  0  0  0  0  0  0  0  0  0
    8.5983   40.4834    8.9785 H   0  0  0  0  0  0  0  0  0  0  0  0
    8.9617   38.0190   11.7709 H   0  0  0  0  0  0  0  0  0  0  0  0
    8.6357   35.5631   11.4617 H   0  0  0  0  0  0  0  0  0  0  0  0
    7.7279   34.6783    9.3021 H   0  0  0  0  0  0  0  0  0  0  0  0
    6.8900   35.0478    7.0681 H   0  0  0  0  0  0  0  0  0  0  0  0
    6.2889   36.5945    5.1902 H   0  0  0  0  0  0  0  0  0  0  0  0
    6.5959   39.0671    5.4628 H   0  0  0  0  0  0  0  0  0  0  0  0
    7.5023   39.9945    7.5993 H   0  0  0  0  0  0  0  0  0  0  0  0
   10.5786   38.3722    9.0138 H   0  0  0  0  0  0  0  0  0  0  0  0
   12.9783   37.6468    9.0460 H   0  0  0  0  0  0  0  0  0  0  0  0
   13.7936   40.5009   12.2075 H   0  0  0  0  0  0  0  0  0  0  0  0
  1  2  1  0
  2  3  1  0
  3  4  1  0
  4  5  2  0
  4  6  1  0
  6  7  1  0
  6  8  1  0
  8  9  1  0
  9 10  2  0
 10 11  1  0
 11 12  2  0
 11 13  1  0
 10 14  1  0
 14 15  1  0
 15 16  1  0
 16 17  2  0
 17 18  1  0
 18 19  2  0
 19 20  1  0
 20 21  2  0
 21 22  1  0
 22 23  2  0
 23 24  1  0
 24 25  2  0
 14 26  1  0
 26 27  2  0
 27 28  1  0
 28 29  2  0
 29 30  1  0
 29 31  1  0
 31 32  2  0
 32  9  1  0
 25 16  1  0
 32 26  1  0
 25 20  1  0
  1 33  1  0
  1 34  1  0
  1 35  1  0
  2 36  1  0
  2 37  1  0
  7 38  1  0
  7 39  1  0
  7 40  1  0
  8 41  1  0
  8 42  1  0
 15 43  1  0
 15 44  1  0
 17 45  1  0
 18 46  1  0
 19 47  1  0
 21 48  1  0
 22 49  1  0
 23 50  1  0
 24 51  1  0
 27 52  1  0
 28 53  1  0
 31 54  1  0
M  CHG  1  13  -1
M  END
>  <meeko>  (56) 
{"free_energy": -6.6, "intermolecular_energy": -8.98, "internal_energy": -1.67, "cluster_size": 210, "cluster_id": 15, "rank_in_cluster": 37}

$$$$

     RDKit          3D

 54 57  0  0  0  0  0  0  0  0999 V2000
   14.6480   39.1240    8.7510 C   0  0  0  0  0  0  0  0  0  0  0  0
   14.4540   38.4230   10.0980 C   0  0  0  0  0  0  0  0  0  0  0  0
   14.6700   39.3540   11.1450 O   0  0  0  0  0  0  0  0  0  0  0  0
   14.2830   39.0580   12.4050 C   0  0  0  0  0  0  0  0  0  0  0  0
   14.9450   38.3520   13.1680 O   0  0  0  0  0  0  0  0  0  0  0  0
   13.0550   39.6640   12.6980 N   0  0  0  0  0  0  0  0  0  0  0  0
   12.1380   39.1210   13.7060 C   0  0  0  0  0  0  0  0  0  0  0  0
   12.6100   40.8680   11.9830 C   0  0  0  0  0  0  0  0  0  0  0  0
   11.1530   40.7950   11.5920 C   0  0  0  0  0  0  0  0  0  0  0  0
   10.5260   39.8930   10.7500 C   0  0  0  0  0  0  0  0  0  0  0  0
   11.0940   38.7190   10.0170 C   0  0  0  0  0  0  0  0  0  0  0  0
   11.1920   38.7780    8.7720 O   0  0  0  0  0  0  0  0  0  0  0  0
   11.4440   37.6910   10.6360 O   0  0  0  0  0  1  0  0  0  0  0  0
    9.1660   40.2520   10.6310 N   0  0  0  0  0  0  0  0  0  0  0  0
    8.1130   39.5880    9.8570 C   0  0  0  0  0  0  0  0  0  0  0  0
    8.1380   38.0550    9.9180 C   0  0  0  0  0  0  0  0  0  0  0  0
    8.5080   37.3820   11.1090 C   0  0  0  0  0  0  0  0  0  0  0  0
    8.5310   35.9780   11.1690 C   0  0  0  0  0  0  0  0  0  0  0  0
    8.1870   35.2200   10.0380 C   0  0  0  0  0  0  0  0  0  0  0  0
    7.8180   35.8660    8.8430 C   0  0  0  0  0  0  0  0  0  0  0  0
    7.4760   35.0890    7.7160 C   0  0  0  0  0  0  0  0  0  0  0  0
    7.1050   35.7120    6.5120 C   0  0  0  0  0  0  0  0  0  0  0  0
    7.0740   37.1160    6.4320 C   0  0  0  0  0  0  0  0  0  0  0  0
    7.4150   37.8970    7.5520 C   0  0  0  0  0  0  0  0  0  0  0  0
    7.7910   37.2860    8.7740 C   0  0  0  0  0  0  0  0  0  0  0  0
    8.9230   41.3850   11.3970 C   0  0  0  0  0  0  0  0  0  0  0  0
    7.7540   42.1440   11.6080 C   0  0  0  0  0  0  0  0  0  0  0  0
    7.7870   43.2620   12.4570 C   0  0  0  0  0  0  0  0  0  0  0  0
    8.9890   43.6170   13.0940 C   0  0  0  0  0  0  0  0  0  0  0  0
    9.0280   44.6910   13.9180 F   0  0  0  0  0  0  0  0  0  0  0  0
   10.1540   42.8560   12.8760 C   0  0  0  0  0  0  0  0  0  0  0  0
   10.1530   41.7280   12.0200 C   0  0  0  0  0  0  0  0  0  0  0  0
   14.9379   40.1714    8.9211 H   0  0  0  0  0  0  0  0  0  0  0  0
   15.4384   38.6126    8.1820 H   0  0  0  0  0  0  0  0  0  0  0  0
   13.7072   39.0917    8.1820 H   0  0  0  0  0  0  0  0  0  0  0  0
   13.4294   38.0281   10.1627 H   0  0  0  0  0  0  0  0  0  0  0  0
   15.1704   37.5932   10.1886 H   0  0  0  0  0  0  0  0  0  0  0  0
   12.5220   39.3484   14.7114 H   0  0  0  0  0  0  0  0  0  0  0  0
   11.1446   39.5765   13.5812 H   0  0  0  0  0  0  0  0  0  0  0  0
   12.0598   38.0309   13.5812 H   0  0  0  0  0  0  0  0  0  0  0  0
   12.7583   41.7418   12.6345 H   0  0  0  0  0  0  0  0  0  0  0  0
   13.2030   40.9506   11.0602 H   0  0  0  0  0  0  0  0  0  0  0  0
    7.1400   39.9297   10.2398 H   0  0  0  0  0  0  0  0  0  0  0  0
    8.2852   39.8585    8.8048 H   0  0  0  0  0  0  0  0  0  0  0  0
    8.7812   37.9670   11.9996 H   0  0  0  0  0  0  0  0  0  0  0  0
    8.8187   35.4725   12.1026 H   0  0  0  0  0  0  0  0  0  0  0  0
    8.2059   34.1212   10.0859 H   0  0  0  0  0  0  0  0  0  0  0  0
    7.4998   33.9911    7.7800 H   0  0  0  0  0  0  0  0  0  0  0  0
    6.8397   35.1035    5.6349 H   0  0  0  0  0  0  0  0  0  0  0  0
    6.7823   37.6051    5.4909 H   0  0  0  0  0  0  0  0  0  0  0  0
    7.3894   38.9942    7.4780 H   0  0  0  0  0  0  0  0  0  0  0  0
    6.8162   41.8606   11.1077 H   0  0  0  0  0  0  0  0  0  0  0  0
    6.8769   43.8571   12.6229 H   0  0  0  0  0  0  0  0  0  0  0  0
   11.0867   43.1448   13.3827 H   0  0  0  0  0  0  0  0  0  0  0  0
  1  2  1  0
  2  3  1  0
  3  4  1  0
  4  5  2  0
  4  6  1  0
  6  7  1  0
  6  8  1  0
  8  9  1  0
  9 10  2  0
 10 11  1  0
 11 12  2  0
 11 13  1  0
 10 14  1  0
 14 15  1  0
 15 16  1  0
 16 17  2  0
 17 18  1  0
 18 19  2  0
 19 20  1  0
 20 21  2  0
 21 22  1  0
 22 23  2  0
 23 24  1  0
 24 25  2  0
 14 26  1  0
 26 27  2  0
 27 28  1  0
 28 29  2  0
 29 30  1  0
 29 31  1  0
 31 32  2  0
 32  9  1  0
 25 16  1  0
 32 26  1  0
 25 20  1  0
  1 33  1  0
  1 34  1  0
  1 35  1  0
  2 36  1  0
  2 37  1  0
  7 38  1  0
  7 39  1  0
  7 40  1  0
  8 41  1  0
  8 42  1  0
 15 43  1  0
 15 44  1  0
 17 45  1  0
 18 46  1  0
 19 47  1  0
 21 48  1  0
 22 49  1  0
 23 50  1  0
 24 51  1  0
 27 52  1  0
 28 53  1  0
 31 54  1  0
M  CHG  1  13  -1
M  END
>  <meeko>  (57) 
{"free_energy": -7.92, "intermolecular_energy": -10.31, "internal_energy": -1.97, "cluster_size": 417, "cluster_id": 2, "rank_in_cluster": 7}

$$$$

     RDKit          3D

 54 57  0  0  0  0  0  0  0  0999 V2000
   15.9660   36.0140   10.9640 C   0  0  0  0  0  0  0  0  0  0  0  0
   16.0210   37.3130   11.7730 C   0  0  0  0  0  0  0  0  0  0  0  0
   15.0180   38.1990   11.3030 O   0  0  0  0  0  0  0  0  0  0  0  0
   14.9470   39.4580   11.7850 C   0  0  0  0  0  0  0  0  0  0  0  0
   15.1780   40.4580   11.1040 O   0  0  0  0  0  0  0  0  0  0  0  0
   14.5770   39.4460   13.1360 N   0  0  0  0  0  0  0  0  0  0  0  0
   15.4950   39.0110   14.1940 C   0  0  0  0  0  0  0  0  0  0  0  0
   13.2280   39.8460   13.5590 C   0  0  0  0  0  0  0  0  0  0  0  0
   12.1930   38.7920   13.2420 C   0  0  0  0  0  0  0  0  0  0  0  0
   11.7690   38.3390   12.0050 C   0  0  0  0  0  0  0  0  0  0  0  0
   12.2300   38.7290   10.6370 C   0  0  0  0  0  0  0  0  0  0  0  0
   12.7290   37.8520    9.8990 O   0  0  0  0  0  0  0  0  0  0  0  0
   12.1360   39.9130   10.2470 O   0  0  0  0  0  1  0  0  0  0  0  0
   10.7390   37.3930   12.1970 N   0  0  0  0  0  0  0  0  0  0  0  0
    9.9940   36.6400   11.1840 C   0  0  0  0  0  0  0  0  0  0  0  0
    9.2080   37.5020   10.1870 C   0  0  0  0  0  0  0  0  0  0  0  0
    9.0750   38.9000   10.3830 C   0  0  0  0  0  0  0  0  0  0  0  0
    8.3560   39.6940    9.4730 C   0  0  0  0  0  0  0  0  0  0  0  0
    7.7540   39.1040    8.3500 C   0  0  0  0  0  0  0  0  0  0  0  0
    7.8700   37.7170    8.1350 C   0  0  0  0  0  0  0  0  0  0  0  0
    7.2580   37.1420    7.0020 C   0  0  0  0  0  0  0  0  0  0  0  0
    7.3600   35.7590    6.7660 C   0  0  0  0  0  0  0  0  0  0  0  0
    8.0760   34.9480    7.6650 C   0  0  0  0  0  0  0  0  0  0  0  0
    8.6890   35.5170    8.7980 C   0  0  0  0  0  0  0  0  0  0  0  0
    8.5960   36.9080    9.0500 C   0  0  0  0  0  0  0  0  0  0  0  0
   10.5030   37.2420   13.5570 C   0  0  0  0  0  0  0  0  0  0  0  0
    9.5840   36.4450   14.2690 C   0  0  0  0  0  0  0  0  0  0  0  0
    9.5650   36.4790   15.6730 C   0  0  0  0  0  0  0  0  0  0  0  0
   10.4670   37.3100   16.3610 C   0  0  0  0  0  0  0  0  0  0  0  0
   10.4570   37.3450   17.7150 F   0  0  0  0  0  0  0  0  0  0  0  0
   11.3800   38.1070   15.6430 C   0  0  0  0  0  0  0  0  0  0  0  0
   11.4170   38.0980   14.2280 C   0  0  0  0  0  0  0  0  0  0  0  0
   15.9297   35.1556   11.6508 H   0  0  0  0  0  0  0  0  0  0  0  0
   15.0671   36.0147   10.3300 H   0  0  0  0  0  0  0  0  0  0  0  0
   16.8618   35.9387   10.3300 H   0  0  0  0  0  0  0  0  0  0  0  0
   15.8472   37.0916   12.8364 H   0  0  0  0  0  0  0  0  0  0  0  0
   17.0102   37.7795   11.6555 H   0  0  0  0  0  0  0  0  0  0  0  0
   15.0485   39.2226   15.1768 H   0  0  0  0  0  0  0  0  0  0  0  0
   15.6779   37.9305   14.0993 H   0  0  0  0  0  0  0  0  0  0  0  0
   16.4471   39.5537   14.0993 H   0  0  0  0  0  0  0  0  0  0  0  0
   13.2347   40.0202   14.6451 H   0  0  0  0  0  0  0  0  0  0  0  0
   12.9589   40.7592   13.0080 H   0  0  0  0  0  0  0  0  0  0  0  0
   10.7112   36.0289   10.6163 H   0  0  0  0  0  0  0  0  0  0  0  0
    9.2490   36.0423   11.7296 H   0  0  0  0  0  0  0  0  0  0  0  0
    9.5418   39.3705   11.2609 H   0  0  0  0  0  0  0  0  0  0  0  0
    8.2649   40.7773    9.6405 H   0  0  0  0  0  0  0  0  0  0  0  0
    7.1915   39.7255    7.6378 H   0  0  0  0  0  0  0  0  0  0  0  0
    6.6985   37.7776    6.2999 H   0  0  0  0  0  0  0  0  0  0  0  0
    6.8815   35.3133    5.8815 H   0  0  0  0  0  0  0  0  0  0  0  0
    8.1573   33.8663    7.4825 H   0  0  0  0  0  0  0  0  0  0  0  0
    9.2463   34.8741    9.4952 H   0  0  0  0  0  0  0  0  0  0  0  0
    8.8816   35.7963   13.7250 H   0  0  0  0  0  0  0  0  0  0  0  0
    8.8483   35.8589   16.2314 H   0  0  0  0  0  0  0  0  0  0  0  0
   12.0804   38.7513   16.1947 H   0  0  0  0  0  0  0  0  0  0  0  0
  1  2  1  0
  2  3  1  0
  3  4  1  0
  4  5  2  0
  4  6  1  0
  6  7  1  0
  6  8  1  0
  8  9  1  0
  9 10  2  0
 10 11  1  0
 11 12  2  0
 11 13  1  0
 10 14  1  0
 14 15  1  0
 15 16  1  0
 16 17  2  0
 17 18  1  0
 18 19  2  0
 19 20  1  0
 20 21  2  0
 21 22  1  0
 22 23  2  0
 23 24  1  0
 24 25  2  0
 14 26  1  0
 26 27  2  0
 27 28  1  0
 28 29  2  0
 29 30  1  0
 29 31  1  0
 31 32  2  0
 32  9  1  0
 25 16  1  0
 32 26  1  0
 25 20  1  0
  1 33  1  0
  1 34  1  0
  1 35  1  0
  2 36  1  0
  2 37  1  0
  7 38  1  0
  7 39  1  0
  7 40  1  0
  8 41  1  0
  8 42  1  0
 15 43  1  0
 15 44  1  0
 17 45  1  0
 18 46  1  0
 19 47  1  0
 21 48  1  0
 22 49  1  0
 23 50  1  0
 24 51  1  0
 27 52  1  0
 28 53  1  0
 31 54  1  0
M  CHG  1  13  -1
M  END
>  <meeko>  (58) 
{"free_energy": -6.23, "intermolecular_energy": -8.62, "internal_energy": -1.39, "cluster_size": 292, "cluster_id": 10, "rank_in_cluster": 122}

$$$$

     RDKit          3D

 54 57  0  0  0  0  0  0  0  0999 V2000
   11.3750   33.0470   14.7060 C   0  0  0  0  0  0  0  0  0  0  0  0
   11.8380   33.7820   15.9670 C   0  0  0  0  0  0  0  0  0  0  0  0
   11.2270   35.0610   16.0130 O   0  0  0  0  0  0  0  0  0  0  0  0
    9.8890   35.1660   16.1610 C   0  0  0  0  0  0  0  0  0  0  0  0
    9.0960   34.2970   15.7960 O   0  0  0  0  0  0  0  0  0  0  0  0
    9.5570   36.3770   16.7830 N   0  0  0  0  0  0  0  0  0  0  0  0
    8.2970   36.5610   17.5110 C   0  0  0  0  0  0  0  0  0  0  0  0
   10.4510   37.5410   16.7100 C   0  0  0  0  0  0  0  0  0  0  0  0
   10.9860   37.7650   15.3150 C   0  0  0  0  0  0  0  0  0  0  0  0
   10.4410   37.3720   14.1040 C   0  0  0  0  0  0  0  0  0  0  0  0
    9.1610   36.6500   13.8240 C   0  0  0  0  0  0  0  0  0  0  0  0
    8.1150   37.0440   14.3820 O   0  0  0  0  0  0  0  0  0  0  0  0
    9.1430   35.6600   13.0600 O   0  0  0  0  0  1  0  0  0  0  0  0
   11.3230   37.7450   13.0670 N   0  0  0  0  0  0  0  0  0  0  0  0
   11.1660   37.5470   11.6240 C   0  0  0  0  0  0  0  0  0  0  0  0
   10.1160   38.4470   10.9600 C   0  0  0  0  0  0  0  0  0  0  0  0
   10.0150   39.8190   11.3020 C   0  0  0  0  0  0  0  0  0  0  0  0
    9.0550   40.6480   10.6970 C   0  0  0  0  0  0  0  0  0  0  0  0
    8.1750   40.1190    9.7380 C   0  0  0  0  0  0  0  0  0  0  0  0
    8.2540   38.7590    9.3830 C   0  0  0  0  0  0  0  0  0  0  0  0
    7.3620   38.2450    8.4190 C   0  0  0  0  0  0  0  0  0  0  0  0
    7.4230   36.8900    8.0480 C   0  0  0  0  0  0  0  0  0  0  0  0
    8.3770   36.0450    8.6420 C   0  0  0  0  0  0  0  0  0  0  0  0
    9.2700   36.5520    9.6050 C   0  0  0  0  0  0  0  0  0  0  0  0
    9.2230   37.9150    9.9900 C   0  0  0  0  0  0  0  0  0  0  0  0
   12.4330   38.3760   13.6150 C   0  0  0  0  0  0  0  0  0  0  0  0
   13.5930   38.9170   13.0230 C   0  0  0  0  0  0  0  0  0  0  0  0
   14.5750   39.5180   13.8290 C   0  0  0  0  0  0  0  0  0  0  0  0
   14.3930   39.5770   15.2210 C   0  0  0  0  0  0  0  0  0  0  0  0
   15.3340   40.1580   16.0030 F   0  0  0  0  0  0  0  0  0  0  0  0
   13.2340   39.0310   15.8050 C   0  0  0  0  0  0  0  0  0  0  0  0
   12.2300   38.4130   15.0200 C   0  0  0  0  0  0  0  0  0  0  0  0
   10.8089   32.1484   14.9924 H   0  0  0  0  0  0  0  0  0  0  0  0
   10.7318   33.7110   14.1099 H   0  0  0  0  0  0  0  0  0  0  0  0
   12.2517   32.7536   14.1099 H   0  0  0  0  0  0  0  0  0  0  0  0
   11.5484   33.2039   16.8569 H   0  0  0  0  0  0  0  0  0  0  0  0
   12.9319   33.8959   15.9473 H   0  0  0  0  0  0  0  0  0  0  0  0
    8.4914   36.5326   18.5933 H   0  0  0  0  0  0  0  0  0  0  0  0
    7.8571   37.5329   17.2428 H   0  0  0  0  0  0  0  0  0  0  0  0
    7.5976   35.7555   17.2428 H   0  0  0  0  0  0  0  0  0  0  0  0
    9.8932   38.4359   17.0231 H   0  0  0  0  0  0  0  0  0  0  0  0
   11.3078   37.3500   17.3729 H   0  0  0  0  0  0  0  0  0  0  0  0
   12.1365   37.7427   11.1445 H   0  0  0  0  0  0  0  0  0  0  0  0
   10.8155   36.5129   11.4904 H   0  0  0  0  0  0  0  0  0  0  0  0
   10.6989   40.2414   12.0529 H   0  0  0  0  0  0  0  0  0  0  0  0
    8.9926   41.7107   10.9742 H   0  0  0  0  0  0  0  0  0  0  0  0
    7.4237   40.7680    9.2642 H   0  0  0  0  0  0  0  0  0  0  0  0
    6.6155   38.9068    7.9555 H   0  0  0  0  0  0  0  0  0  0  0  0
    6.7264   36.4923    7.2953 H   0  0  0  0  0  0  0  0  0  0  0  0
    8.4257   34.9847    8.3534 H   0  0  0  0  0  0  0  0  0  0  0  0
   10.0126   35.8826   10.0638 H   0  0  0  0  0  0  0  0  0  0  0  0
   13.7290   38.8687   11.9325 H   0  0  0  0  0  0  0  0  0  0  0  0
   15.4821   39.9404   13.3721 H   0  0  0  0  0  0  0  0  0  0  0  0
   13.1053   39.0856   16.8961 H   0  0  0  0  0  0  0  0  0  0  0  0
  1  2  1  0
  2  3  1  0
  3  4  1  0
  4  5  2  0
  4  6  1  0
  6  7  1  0
  6  8  1  0
  8  9  1  0
  9 10  2  0
 10 11  1  0
 11 12  2  0
 11 13  1  0
 10 14  1  0
 14 15  1  0
 15 16  1  0
 16 17  2  0
 17 18  1  0
 18 19  2  0
 19 20  1  0
 20 21  2  0
 21 22  1  0
 22 23  2  0
 23 24  1  0
 24 25  2  0
 14 26  1  0
 26 27  2  0
 27 28  1  0
 28 29  2  0
 29 30  1  0
 29 31  1  0
 31 32  2  0
 32  9  1  0
 25 16  1  0
 32 26  1  0
 25 20  1  0
  1 33  1  0
  1 34  1  0
  1 35  1  0
  2 36  1  0
  2 37  1  0
  7 38  1  0
  7 39  1  0
  7 40  1  0
  8 41  1  0
  8 42  1  0
 15 43  1  0
 15 44  1  0
 17 45  1  0
 18 46  1  0
 19 47  1  0
 21 48  1  0
 22 49  1  0
 23 50  1  0
 24 51  1  0
 27 52  1  0
 28 53  1  0
 31 54  1  0
M  CHG  1  13  -1
M  END
>  <meeko>  (59) 
{"free_energy": -6.06, "intermolecular_energy": -8.44, "internal_energy": -1.54, "cluster_size": 263, "cluster_id": 1, "rank_in_cluster": 214}

$$$$

     RDKit          3D

 54 57  0  0  0  0  0  0  0  0999 V2000
   17.6510   38.0550   12.4630 C   0  0  0  0  0  0  0  0  0  0  0  0
   17.1570   38.4900   13.8450 C   0  0  0  0  0  0  0  0  0  0  0  0
   15.7440   38.3800   13.8920 O   0  0  0  0  0  0  0  0  0  0  0  0
   15.0820   38.6460   15.0380 C   0  0  0  0  0  0  0  0  0  0  0  0
   14.8310   37.7920   15.8900 O   0  0  0  0  0  0  0  0  0  0  0  0
   14.7430   40.0040   15.1060 N   0  0  0  0  0  0  0  0  0  0  0  0
   14.6980   40.7350   16.3770 C   0  0  0  0  0  0  0  0  0  0  0  0
   14.3850   40.7610   13.8990 C   0  0  0  0  0  0  0  0  0  0  0  0
   13.1740   40.1870   13.2020 C   0  0  0  0  0  0  0  0  0  0  0  0
   11.8370   40.4700   13.4150 C   0  0  0  0  0  0  0  0  0  0  0  0
   11.2060   41.4420   14.3620 C   0  0  0  0  0  0  0  0  0  0  0  0
   11.5880   42.6310   14.3430 O   0  0  0  0  0  0  0  0  0  0  0  0
   10.3280   41.0660   15.1680 O   0  0  0  0  0  1  0  0  0  0  0  0
   11.0590   39.6450   12.5740 N   0  0  0  0  0  0  0  0  0  0  0  0
    9.6000   39.5960   12.4440 C   0  0  0  0  0  0  0  0  0  0  0  0
    9.0890   39.2670   11.0350 C   0  0  0  0  0  0  0  0  0  0  0  0
    9.0360   40.2660   10.0300 C   0  0  0  0  0  0  0  0  0  0  0  0
    8.5690   39.9690    8.7380 C   0  0  0  0  0  0  0  0  0  0  0  0
    8.1430   38.6680    8.4270 C   0  0  0  0  0  0  0  0  0  0  0  0
    8.1840   37.6590    9.4080 C   0  0  0  0  0  0  0  0  0  0  0  0
    7.7520   36.3580    9.0790 C   0  0  0  0  0  0  0  0  0  0  0  0
    7.7830   35.3340   10.0430 C   0  0  0  0  0  0  0  0  0  0  0  0
    8.2480   35.6110   11.3410 C   0  0  0  0  0  0  0  0  0  0  0  0
    8.6810   36.9080   11.6770 C   0  0  0  0  0  0  0  0  0  0  0  0
    8.6560   37.9510   10.7170 C   0  0  0  0  0  0  0  0  0  0  0  0
   11.8990   38.8330   11.8240 C   0  0  0  0  0  0  0  0  0  0  0  0
   11.6310   37.8380   10.8610 C   0  0  0  0  0  0  0  0  0  0  0  0
   12.6940   37.1630   10.2370 C   0  0  0  0  0  0  0  0  0  0  0  0
   14.0190   37.4870   10.5750 C   0  0  0  0  0  0  0  0  0  0  0  0
   15.0480   36.8430    9.9740 F   0  0  0  0  0  0  0  0  0  0  0  0
   14.2790   38.4790   11.5400 C   0  0  0  0  0  0  0  0  0  0  0  0
   13.2290   39.1720   12.1910 C   0  0  0  0  0  0  0  0  0  0  0  0
   18.4720   37.3320   12.5779 H   0  0  0  0  0  0  0  0  0  0  0  0
   16.8244   37.5861   11.9090 H   0  0  0  0  0  0  0  0  0  0  0  0
   18.0115   38.9343   11.9090 H   0  0  0  0  0  0  0  0  0  0  0  0
   17.6020   37.8428   14.6151 H   0  0  0  0  0  0  0  0  0  0  0  0
   17.4525   39.5331   14.0312 H   0  0  0  0  0  0  0  0  0  0  0  0
   14.7420   40.0208   17.2125 H   0  0  0  0  0  0  0  0  0  0  0  0
   15.5556   41.4213   16.4358 H   0  0  0  0  0  0  0  0  0  0  0  0
   13.7627   41.3110   16.4358 H   0  0  0  0  0  0  0  0  0  0  0  0
   14.1692   41.8011   14.1845 H   0  0  0  0  0  0  0  0  0  0  0  0
   15.2337   40.7044   13.2015 H   0  0  0  0  0  0  0  0  0  0  0  0
    9.2209   38.8273   13.1334 H   0  0  0  0  0  0  0  0  0  0  0  0
    9.2348   40.6071   12.6770 H   0  0  0  0  0  0  0  0  0  0  0  0
    9.3654   41.2889   10.2651 H   0  0  0  0  0  0  0  0  0  0  0  0
    8.5373   40.7562    7.9703 H   0  0  0  0  0  0  0  0  0  0  0  0
    7.7768   38.4367    7.4159 H   0  0  0  0  0  0  0  0  0  0  0  0
    7.3888   36.1425    8.0633 H   0  0  0  0  0  0  0  0  0  0  0  0
    7.4447   34.3202    9.7825 H   0  0  0  0  0  0  0  0  0  0  0  0
    8.2735   34.8117   12.0963 H   0  0  0  0  0  0  0  0  0  0  0  0
    9.0425   37.1142   12.6952 H   0  0  0  0  0  0  0  0  0  0  0  0
   10.5917   37.5907   10.5988 H   0  0  0  0  0  0  0  0  0  0  0  0
   12.4898   36.3844    9.4873 H   0  0  0  0  0  0  0  0  0  0  0  0
   15.3214   38.7213   11.7941 H   0  0  0  0  0  0  0  0  0  0  0  0
  1  2  1  0
  2  3  1  0
  3  4  1  0
  4  5  2  0
  4  6  1  0
  6  7  1  0
  6  8  1  0
  8  9  1  0
  9 10  2  0
 10 11  1  0
 11 12  2  0
 11 13  1  0
 10 14  1  0
 14 15  1  0
 15 16  1  0
 16 17  2  0
 17 18  1  0
 18 19  2  0
 19 20  1  0
 20 21  2  0
 21 22  1  0
 22 23  2  0
 23 24  1  0
 24 25  2  0
 14 26  1  0
 26 27  2  0
 27 28  1  0
 28 29  2  0
 29 30  1  0
 29 31  1  0
 31 32  2  0
 32  9  1  0
 25 16  1  0
 32 26  1  0
 25 20  1  0
  1 33  1  0
  1 34  1  0
  1 35  1  0
  2 36  1  0
  2 37  1  0
  7 38  1  0
  7 39  1  0
  7 40  1  0
  8 41  1  0
  8 42  1  0
 15 43  1  0
 15 44  1  0
 17 45  1  0
 18 46  1  0
 19 47  1  0
 21 48  1  0
 22 49  1  0
 23 50  1  0
 24 51  1  0
 27 52  1  0
 28 53  1  0
 31 54  1  0
M  CHG  1  13  -1
M  END
>  <meeko>  (60) 
{"free_energy": -5.35, "intermolecular_energy": -7.74, "internal_energy": -1.79, "cluster_size": 167, "cluster_id": 22, "rank_in_cluster": 105}

$$$$

     RDKit          3D

 54 57  0  0  0  0  0  0  0  0999 V2000
   19.1750   39.9580    9.8410 C   0  0  0  0  0  0  0  0  0  0  0  0
   17.9010   40.1160   10.6750 C   0  0  0  0  0  0  0  0  0  0  0  0
   16.8990   39.2510   10.1650 O   0  0  0  0  0  0  0  0  0  0  0  0
   15.6200   39.6750   10.0760 C   0  0  0  0  0  0  0  0  0  0  0  0
   15.0360   39.8450    9.0050 O   0  0  0  0  0  0  0  0  0  0  0  0
   15.0800   39.8780   11.3520 N   0  0  0  0  0  0  0  0  0  0  0  0
   15.3390   38.9580   12.4650 C   0  0  0  0  0  0  0  0  0  0  0  0
   14.1950   41.0170   11.6330 C   0  0  0  0  0  0  0  0  0  0  0  0
   12.7490   40.6010   11.7570 C   0  0  0  0  0  0  0  0  0  0  0  0
   11.8510   40.2770   10.7550 C   0  0  0  0  0  0  0  0  0  0  0  0
   12.0570   40.2090    9.2750 C   0  0  0  0  0  0  0  0  0  0  0  0
   11.8920   39.1150    8.6950 O   0  0  0  0  0  0  0  0  0  0  0  0
   12.4070   41.2250    8.6340 O   0  0  0  0  0  1  0  0  0  0  0  0
   10.5940   40.0130   11.3400 N   0  0  0  0  0  0  0  0  0  0  0  0
    9.3460   39.6210   10.6780 C   0  0  0  0  0  0  0  0  0  0  0  0
    9.2880   38.1560   10.2260 C   0  0  0  0  0  0  0  0  0  0  0  0
    9.9800   37.1480   10.9430 C   0  0  0  0  0  0  0  0  0  0  0  0
    9.9290   35.8040   10.5330 C   0  0  0  0  0  0  0  0  0  0  0  0
    9.1870   35.4440    9.3970 C   0  0  0  0  0  0  0  0  0  0  0  0
    8.4920   36.4270    8.6680 C   0  0  0  0  0  0  0  0  0  0  0  0
    7.7510   36.0470    7.5290 C   0  0  0  0  0  0  0  0  0  0  0  0
    7.0500   37.0130    6.7850 C   0  0  0  0  0  0  0  0  0  0  0  0
    7.0870   38.3620    7.1800 C   0  0  0  0  0  0  0  0  0  0  0  0
    7.8250   38.7480    8.3150 C   0  0  0  0  0  0  0  0  0  0  0  0
    8.5370   37.7880    9.0760 C   0  0  0  0  0  0  0  0  0  0  0  0
   10.6870   40.1690   12.7170 C   0  0  0  0  0  0  0  0  0  0  0  0
    9.7300   40.0390   13.7440 C   0  0  0  0  0  0  0  0  0  0  0  0
   10.1050   40.2500   15.0810 C   0  0  0  0  0  0  0  0  0  0  0  0
   11.4340   40.5890   15.3870 C   0  0  0  0  0  0  0  0  0  0  0  0
   11.8030   40.7890   16.6750 F   0  0  0  0  0  0  0  0  0  0  0  0
   12.3840   40.7200   14.3550 C   0  0  0  0  0  0  0  0  0  0  0  0
   12.0340   40.5200   12.9980 C   0  0  0  0  0  0  0  0  0  0  0  0
   20.0408   39.8506   10.5109 H   0  0  0  0  0  0  0  0  0  0  0  0
   19.0893   39.0636    9.2064 H   0  0  0  0  0  0  0  0  0  0  0  0
   19.3103   40.8462    9.2064 H   0  0  0  0  0  0  0  0  0  0  0  0
   18.1127   39.8563   11.7227 H   0  0  0  0  0  0  0  0  0  0  0  0
   17.5516   41.1577   10.6221 H   0  0  0  0  0  0  0  0  0  0  0  0
   15.1905   39.4854   13.4188 H   0  0  0  0  0  0  0  0  0  0  0  0
   14.6458   38.1060   12.4054 H   0  0  0  0  0  0  0  0  0  0  0  0
   16.3749   38.5928   12.4054 H   0  0  0  0  0  0  0  0  0  0  0  0
   14.5105   41.4859   12.5767 H   0  0  0  0  0  0  0  0  0  0  0  0
   14.2723   41.7197   10.7902 H   0  0  0  0  0  0  0  0  0  0  0  0
    8.5173   39.7952   11.3801 H   0  0  0  0  0  0  0  0  0  0  0  0
    9.2770   40.2292    9.7640 H   0  0  0  0  0  0  0  0  0  0  0  0
   10.5655   37.4212   11.8332 H   0  0  0  0  0  0  0  0  0  0  0  0
   10.4707   35.0344   11.1026 H   0  0  0  0  0  0  0  0  0  0  0  0
    9.1487   34.3925    9.0763 H   0  0  0  0  0  0  0  0  0  0  0  0
    7.7215   34.9912    7.2217 H   0  0  0  0  0  0  0  0  0  0  0  0
    6.4744   36.7140    5.8966 H   0  0  0  0  0  0  0  0  0  0  0  0
    6.5375   39.1182    6.6002 H   0  0  0  0  0  0  0  0  0  0  0  0
    7.8492   39.8062    8.6143 H   0  0  0  0  0  0  0  0  0  0  0  0
    8.6913   39.7728   13.4986 H   0  0  0  0  0  0  0  0  0  0  0  0
    9.3613   40.1503   15.8854 H   0  0  0  0  0  0  0  0  0  0  0  0
   13.4212   40.9837   14.6094 H   0  0  0  0  0  0  0  0  0  0  0  0
  1  2  1  0
  2  3  1  0
  3  4  1  0
  4  5  2  0
  4  6  1  0
  6  7  1  0
  6  8  1  0
  8  9  1  0
  9 10  2  0
 10 11  1  0
 11 12  2  0
 11 13  1  0
 10 14  1  0
 14 15  1  0
 15 16  1  0
 16 17  2  0
 17 18  1  0
 18 19  2  0
 19 20  1  0
 20 21  2  0
 21 22  1  0
 22 23  2  0
 23 24  1  0
 24 25  2  0
 14 26  1  0
 26 27  2  0
 27 28  1  0
 28 29  2  0
 29 30  1  0
 29 31  1  0
 31 32  2  0
 32  9  1  0
 25 16  1  0
 32 26  1  0
 25 20  1  0
  1 33  1  0
  1 34  1  0
  1 35  1  0
  2 36  1  0
  2 37  1  0
  7 38  1  0
  7 39  1  0
  7 40  1  0
  8 41  1  0
  8 42  1  0
 15 43  1  0
 15 44  1  0
 17 45  1  0
 18 46  1  0
 19 47  1  0
 21 48  1  0
 22 49  1  0
 23 50  1  0
 24 51  1  0
 27 52  1  0
 28 53  1  0
 31 54  1  0
M  CHG  1  13  -1
M  END
>  <meeko>  (61) 
{"free_energy": -5.68, "intermolecular_energy": -8.06, "internal_energy": -1.69, "cluster_size": 292, "cluster_id": 10, "rank_in_cluster": 207}

$$$$

     RDKit          3D

 54 57  0  0  0  0  0  0  0  0999 V2000
   14.9450   39.8980    8.4530 C   0  0  0  0  0  0  0  0  0  0  0  0
   13.8150   40.5330    7.6380 C   0  0  0  0  0  0  0  0  0  0  0  0
   12.7680   40.9200    8.5130 O   0  0  0  0  0  0  0  0  0  0  0  0
   12.0200   39.9810    9.1310 C   0  0  0  0  0  0  0  0  0  0  0  0
   11.8820   38.8340    8.7010 O   0  0  0  0  0  0  0  0  0  0  0  0
   11.4510   40.4980   10.3020 N   0  0  0  0  0  0  0  0  0  0  0  0
   10.1700   41.2130   10.2970 C   0  0  0  0  0  0  0  0  0  0  0  0
   12.1290   40.3720   11.5980 C   0  0  0  0  0  0  0  0  0  0  0  0
   11.4200   39.4120   12.5250 C   0  0  0  0  0  0  0  0  0  0  0  0
   11.5310   39.2930   13.8990 C   0  0  0  0  0  0  0  0  0  0  0  0
   12.3490   40.0920   14.8630 C   0  0  0  0  0  0  0  0  0  0  0  0
   13.4840   40.4790   14.5110 O   0  0  0  0  0  0  0  0  0  0  0  0
   11.9130   40.3520   16.0060 O   0  0  0  0  0  1  0  0  0  0  0  0
   10.7260   38.2150   14.3270 N   0  0  0  0  0  0  0  0  0  0  0  0
   10.5190   37.7200   15.6910 C   0  0  0  0  0  0  0  0  0  0  0  0
   10.0140   36.2740   15.7820 C   0  0  0  0  0  0  0  0  0  0  0  0
   10.8080   35.1970   15.3140 C   0  0  0  0  0  0  0  0  0  0  0  0
   10.3490   33.8700   15.3960 C   0  0  0  0  0  0  0  0  0  0  0  0
    9.0860   33.5970   15.9440 C   0  0  0  0  0  0  0  0  0  0  0  0
    8.2780   34.6490   16.4140 C   0  0  0  0  0  0  0  0  0  0  0  0
    7.0120   34.3560   16.9620 C   0  0  0  0  0  0  0  0  0  0  0  0
    6.1880   35.3920   17.4370 C   0  0  0  0  0  0  0  0  0  0  0  0
    6.6290   36.7250   17.3650 C   0  0  0  0  0  0  0  0  0  0  0  0
    7.8920   37.0250   16.8190 C   0  0  0  0  0  0  0  0  0  0  0  0
    8.7350   35.9940   16.3360 C   0  0  0  0  0  0  0  0  0  0  0  0
   10.1010   37.6450   13.2260 C   0  0  0  0  0  0  0  0  0  0  0  0
    9.2190   36.5510   13.1080 C   0  0  0  0  0  0  0  0  0  0  0  0
    8.7190   36.1860   11.8470 C   0  0  0  0  0  0  0  0  0  0  0  0
    9.1010   36.9170   10.7090 C   0  0  0  0  0  0  0  0  0  0  0  0
    8.6190   36.5730    9.4910 F   0  0  0  0  0  0  0  0  0  0  0  0
    9.9850   38.0060   10.8340 C   0  0  0  0  0  0  0  0  0  0  0  0
   10.5100   38.3930   12.0900 C   0  0  0  0  0  0  0  0  0  0  0  0
   14.7344   40.0164    9.5261 H   0  0  0  0  0  0  0  0  0  0  0  0
   15.0162   38.8277    8.2092 H   0  0  0  0  0  0  0  0  0  0  0  0
   15.8962   40.3937    8.2092 H   0  0  0  0  0  0  0  0  0  0  0  0
   14.1967   41.4177    7.1074 H   0  0  0  0  0  0  0  0  0  0  0  0
   13.4343   39.8057    6.9059 H   0  0  0  0  0  0  0  0  0  0  0  0
    9.8467   41.3934   11.3328 H   0  0  0  0  0  0  0  0  0  0  0  0
   10.2891   42.1751    9.7772 H   0  0  0  0  0  0  0  0  0  0  0  0
    9.4136   40.6066    9.7772 H   0  0  0  0  0  0  0  0  0  0  0  0
   13.1530   40.0081   11.4277 H   0  0  0  0  0  0  0  0  0  0  0  0
   12.1291   41.3629   12.0756 H   0  0  0  0  0  0  0  0  0  0  0  0
   11.4779   37.7817   16.2265 H   0  0  0  0  0  0  0  0  0  0  0  0
    9.7332   38.3504   16.1328 H   0  0  0  0  0  0  0  0  0  0  0  0
   11.7978   35.4021   14.8802 H   0  0  0  0  0  0  0  0  0  0  0  0
   10.9798   33.0462   15.0307 H   0  0  0  0  0  0  0  0  0  0  0  0
    8.7271   32.5590   16.0062 H   0  0  0  0  0  0  0  0  0  0  0  0
    6.6676   33.3128   17.0181 H   0  0  0  0  0  0  0  0  0  0  0  0
    5.2011   35.1600   17.8637 H   0  0  0  0  0  0  0  0  0  0  0  0
    5.9855   37.5362   17.7363 H   0  0  0  0  0  0  0  0  0  0  0  0
    8.2276   38.0713   16.7670 H   0  0  0  0  0  0  0  0  0  0  0  0
    8.9228   35.9839   14.0028 H   0  0  0  0  0  0  0  0  0  0  0  0
    8.0320   35.3324   11.7507 H   0  0  0  0  0  0  0  0  0  0  0  0
   10.2742   38.5690    9.9344 H   0  0  0  0  0  0  0  0  0  0  0  0
  1  2  1  0
  2  3  1  0
  3  4  1  0
  4  5  2  0
  4  6  1  0
  6  7  1  0
  6  8  1  0
  8  9  1  0
  9 10  2  0
 10 11  1  0
 11 12  2  0
 11 13  1  0
 10 14  1  0
 14 15  1  0
 15 16  1  0
 16 17  2  0
 17 18  1  0
 18 19  2  0
 19 20  1  0
 20 21  2  0
 21 22  1  0
 22 23  2  0
 23 24  1  0
 24 25  2  0
 14 26  1  0
 26 27  2  0
 27 28  1  0
 28 29  2  0
 29 30  1  0
 29 31  1  0
 31 32  2  0
 32  9  1  0
 25 16  1  0
 32 26  1  0
 25 20  1  0
  1 33  1  0
  1 34  1  0
  1 35  1  0
  2 36  1  0
  2 37  1  0
  7 38  1  0
  7 39  1  0
  7 40  1  0
  8 41  1  0
  8 42  1  0
 15 43  1  0
 15 44  1  0
 17 45  1  0
 18 46  1  0
 19 47  1  0
 21 48  1  0
 22 49  1  0
 23 50  1  0
 24 51  1  0
 27 52  1  0
 28 53  1  0
 31 54  1  0
M  CHG  1  13  -1
M  END
>  <meeko>  (62) 
{"free_energy": -6.24, "intermolecular_energy": -8.62, "internal_energy": -1.3, "cluster_size": 191, "cluster_id": 13, "rank_in_cluster": 26}

$$$$

     RDKit          3D

 54 57  0  0  0  0  0  0  0  0999 V2000
   11.6560   44.7210   13.2410 C   0  0  0  0  0  0  0  0  0  0  0  0
   11.0600   44.0600   14.4860 C   0  0  0  0  0  0  0  0  0  0  0  0
   10.6240   42.7510   14.1560 O   0  0  0  0  0  0  0  0  0  0  0  0
   11.0640   41.6920   14.8680 C   0  0  0  0  0  0  0  0  0  0  0  0
   10.3670   41.0850   15.6830 O   0  0  0  0  0  0  0  0  0  0  0  0
   12.3940   41.3970   14.5400 N   0  0  0  0  0  0  0  0  0  0  0  0
   13.3760   40.9900   15.5510 C   0  0  0  0  0  0  0  0  0  0  0  0
   12.8810   41.5110   13.1590 C   0  0  0  0  0  0  0  0  0  0  0  0
   12.6450   40.2490   12.3630 C   0  0  0  0  0  0  0  0  0  0  0  0
   11.4610   39.5650   12.1540 C   0  0  0  0  0  0  0  0  0  0  0  0
   10.0760   39.8900   12.6190 C   0  0  0  0  0  0  0  0  0  0  0  0
    9.5300   39.1340   13.4510 O   0  0  0  0  0  0  0  0  0  0  0  0
    9.4710   40.8870   12.1690 O   0  0  0  0  0  1  0  0  0  0  0  0
   11.7340   38.4030   11.3990 N   0  0  0  0  0  0  0  0  0  0  0  0
   10.7950   37.3810   10.9290 C   0  0  0  0  0  0  0  0  0  0  0  0
    9.7240   37.8890    9.9550 C   0  0  0  0  0  0  0  0  0  0  0  0
    9.6160   39.2690    9.6480 C   0  0  0  0  0  0  0  0  0  0  0  0
    8.6370   39.7380    8.7560 C   0  0  0  0  0  0  0  0  0  0  0  0
    7.7440   38.8360    8.1550 C   0  0  0  0  0  0  0  0  0  0  0  0
    7.8290   37.4610    8.4450 C   0  0  0  0  0  0  0  0  0  0  0  0
    6.9240   36.5700    7.8320 C   0  0  0  0  0  0  0  0  0  0  0  0
    6.9910   35.1920    8.1070 C   0  0  0  0  0  0  0  0  0  0  0  0
    7.9640   34.7030    8.9960 C   0  0  0  0  0  0  0  0  0  0  0  0
    8.8700   35.5870    9.6110 C   0  0  0  0  0  0  0  0  0  0  0  0
    8.8180   36.9780    9.3450 C   0  0  0  0  0  0  0  0  0  0  0  0
   13.0940   38.3450   11.1260 C   0  0  0  0  0  0  0  0  0  0  0  0
   13.8730   37.3970   10.4310 C   0  0  0  0  0  0  0  0  0  0  0  0
   15.2570   37.5930   10.2930 C   0  0  0  0  0  0  0  0  0  0  0  0
   15.8580   38.7350   10.8500 C   0  0  0  0  0  0  0  0  0  0  0  0
   17.1910   38.9310   10.7180 F   0  0  0  0  0  0  0  0  0  0  0  0
   15.0740   39.6750   11.5470 C   0  0  0  0  0  0  0  0  0  0  0  0
   13.6780   39.5020   11.7070 C   0  0  0  0  0  0  0  0  0  0  0  0
   12.3638   45.5059   13.5458 H   0  0  0  0  0  0  0  0  0  0  0  0
   12.1833   43.9646   12.6411 H   0  0  0  0  0  0  0  0  0  0  0  0
   10.8493   45.1675   12.6411 H   0  0  0  0  0  0  0  0  0  0  0  0
   11.8245   44.0051   15.2750 H   0  0  0  0  0  0  0  0  0  0  0  0
   10.2071   44.6535   14.8469 H   0  0  0  0  0  0  0  0  0  0  0  0
   12.9612   41.1619   16.5552 H   0  0  0  0  0  0  0  0  0  0  0  0
   13.6077   39.9217   15.4280 H   0  0  0  0  0  0  0  0  0  0  0  0
   14.2955   41.5812   15.4280 H   0  0  0  0  0  0  0  0  0  0  0  0
   12.3569   42.3433   12.6665 H   0  0  0  0  0  0  0  0  0  0  0  0
   13.9661   41.6870   13.1978 H   0  0  0  0  0  0  0  0  0  0  0  0
   11.3721   36.5934   10.4224 H   0  0  0  0  0  0  0  0  0  0  0  0
   10.2579   37.0218   11.8192 H   0  0  0  0  0  0  0  0  0  0  0  0
   10.3095   39.9836   10.1154 H   0  0  0  0  0  0  0  0  0  0  0  0
    8.5700   40.8121    8.5283 H   0  0  0  0  0  0  0  0  0  0  0  0
    6.9775   39.2041    7.4571 H   0  0  0  0  0  0  0  0  0  0  0  0
    6.1631   36.9538    7.1365 H   0  0  0  0  0  0  0  0  0  0  0  0
    6.2839   34.4990    7.6277 H   0  0  0  0  0  0  0  0  0  0  0  0
    8.0174   33.6257    9.2117 H   0  0  0  0  0  0  0  0  0  0  0  0
    9.6268   35.1940   10.3058 H   0  0  0  0  0  0  0  0  0  0  0  0
   13.3973   36.5050    9.9974 H   0  0  0  0  0  0  0  0  0  0  0  0
   15.8679   36.8559    9.7513 H   0  0  0  0  0  0  0  0  0  0  0  0
   15.5578   40.5644   11.9771 H   0  0  0  0  0  0  0  0  0  0  0  0
  1  2  1  0
  2  3  1  0
  3  4  1  0
  4  5  2  0
  4  6  1  0
  6  7  1  0
  6  8  1  0
  8  9  1  0
  9 10  2  0
 10 11  1  0
 11 12  2  0
 11 13  1  0
 10 14  1  0
 14 15  1  0
 15 16  1  0
 16 17  2  0
 17 18  1  0
 18 19  2  0
 19 20  1  0
 20 21  2  0
 21 22  1  0
 22 23  2  0
 23 24  1  0
 24 25  2  0
 14 26  1  0
 26 27  2  0
 27 28  1  0
 28 29  2  0
 29 30  1  0
 29 31  1  0
 31 32  2  0
 32  9  1  0
 25 16  1  0
 32 26  1  0
 25 20  1  0
  1 33  1  0
  1 34  1  0
  1 35  1  0
  2 36  1  0
  2 37  1  0
  7 38  1  0
  7 39  1  0
  7 40  1  0
  8 41  1  0
  8 42  1  0
 15 43  1  0
 15 44  1  0
 17 45  1  0
 18 46  1  0
 19 47  1  0
 21 48  1  0
 22 49  1  0
 23 50  1  0
 24 51  1  0
 27 52  1  0
 28 53  1  0
 31 54  1  0
M  CHG  1  13  -1
M  END
>  <meeko>  (63) 
{"free_energy": -5.85, "intermolecular_energy": -8.24, "internal_energy": -1.46, "cluster_size": 167, "cluster_id": 22, "rank_in_cluster": 59}

$$$$

     RDKit          3D

 54 57  0  0  0  0  0  0  0  0999 V2000
   11.6730   36.5980   17.6330 C   0  0  0  0  0  0  0  0  0  0  0  0
   12.0470   36.2950   16.1800 C   0  0  0  0  0  0  0  0  0  0  0  0
   12.4550   37.4950   15.5430 O   0  0  0  0  0  0  0  0  0  0  0  0
   11.6990   38.6090   15.6490 C   0  0  0  0  0  0  0  0  0  0  0  0
   10.4670   38.5960   15.6230 O   0  0  0  0  0  0  0  0  0  0  0  0
   12.5100   39.7410   15.7950 N   0  0  0  0  0  0  0  0  0  0  0  0
   13.2360   40.0260   17.0380 C   0  0  0  0  0  0  0  0  0  0  0  0
   12.6500   40.7230   14.7110 C   0  0  0  0  0  0  0  0  0  0  0  0
   12.0110   40.2520   13.4260 C   0  0  0  0  0  0  0  0  0  0  0  0
   10.7220   40.4640   12.9710 C   0  0  0  0  0  0  0  0  0  0  0  0
    9.6060   41.2430   13.5940 C   0  0  0  0  0  0  0  0  0  0  0  0
    9.4090   41.1310   14.8230 O   0  0  0  0  0  0  0  0  0  0  0  0
    8.8740   41.9760   12.8940 O   0  0  0  0  0  1  0  0  0  0  0  0
   10.5540   39.7800   11.7480 N   0  0  0  0  0  0  0  0  0  0  0  0
    9.3650   39.7230   10.8930 C   0  0  0  0  0  0  0  0  0  0  0  0
    8.8900   38.3060   10.5430 C   0  0  0  0  0  0  0  0  0  0  0  0
    9.1000   37.2280   11.4390 C   0  0  0  0  0  0  0  0  0  0  0  0
    8.6670   35.9290   11.1220 C   0  0  0  0  0  0  0  0  0  0  0  0
    8.0170   35.6830    9.9020 C   0  0  0  0  0  0  0  0  0  0  0  0
    7.7990   36.7370    8.9940 C   0  0  0  0  0  0  0  0  0  0  0  0
    7.1450   36.4710    7.7730 C   0  0  0  0  0  0  0  0  0  0  0  0
    6.9170   37.5080    6.8510 C   0  0  0  0  0  0  0  0  0  0  0  0
    7.3420   38.8150    7.1500 C   0  0  0  0  0  0  0  0  0  0  0  0
    7.9950   39.0870    8.3670 C   0  0  0  0  0  0  0  0  0  0  0  0
    8.2330   38.0540    9.3070 C   0  0  0  0  0  0  0  0  0  0  0  0
   11.7360   39.1300   11.4210 C   0  0  0  0  0  0  0  0  0  0  0  0
   12.0870   38.3100   10.3280 C   0  0  0  0  0  0  0  0  0  0  0  0
   13.3840   37.7780   10.2390 C   0  0  0  0  0  0  0  0  0  0  0  0
   14.3260   38.0670   11.2420 C   0  0  0  0  0  0  0  0  0  0  0  0
   15.5790   37.5600   11.1600 F   0  0  0  0  0  0  0  0  0  0  0  0
   13.9670   38.8830   12.3320 C   0  0  0  0  0  0  0  0  0  0  0  0
   12.6660   39.4290   12.4520 C   0  0  0  0  0  0  0  0  0  0  0  0
   12.3484   36.0509   18.3072 H   0  0  0  0  0  0  0  0  0  0  0  0
   11.7663   37.6783   17.8180 H   0  0  0  0  0  0  0  0  0  0  0  0
   10.6356   36.2826   17.8180 H   0  0  0  0  0  0  0  0  0  0  0  0
   12.8716   35.5673   16.1565 H   0  0  0  0  0  0  0  0  0  0  0  0
   11.1766   35.8753   15.6544 H   0  0  0  0  0  0  0  0  0  0  0  0
   12.5997   39.7762   17.8998 H   0  0  0  0  0  0  0  0  0  0  0  0
   14.1545   39.4217   17.0730 H   0  0  0  0  0  0  0  0  0  0  0  0
   13.4981   41.0938   17.0730 H   0  0  0  0  0  0  0  0  0  0  0  0
   12.1703   41.6631   15.0210 H   0  0  0  0  0  0  0  0  0  0  0  0
   13.7242   40.8643   14.5210 H   0  0  0  0  0  0  0  0  0  0  0  0
    8.5449   40.2400   11.4127 H   0  0  0  0  0  0  0  0  0  0  0  0
    9.6451   40.1990    9.9417 H   0  0  0  0  0  0  0  0  0  0  0  0
    9.6094   37.4108   12.3967 H   0  0  0  0  0  0  0  0  0  0  0  0
    8.8374   35.1046   11.8301 H   0  0  0  0  0  0  0  0  0  0  0  0
    7.6778   34.6661    9.6553 H   0  0  0  0  0  0  0  0  0  0  0  0
    6.8121   35.4486    7.5411 H   0  0  0  0  0  0  0  0  0  0  0  0
    6.4078   37.2977    5.8989 H   0  0  0  0  0  0  0  0  0  0  0  0
    7.1635   39.6275    6.4303 H   0  0  0  0  0  0  0  0  0  0  0  0
    8.3240   40.1125    8.5906 H   0  0  0  0  0  0  0  0  0  0  0  0
   11.3458   38.0875    9.5463 H   0  0  0  0  0  0  0  0  0  0  0  0
   13.6615   37.1381    9.3884 H   0  0  0  0  0  0  0  0  0  0  0  0
   14.7148   39.1014   13.1086 H   0  0  0  0  0  0  0  0  0  0  0  0
  1  2  1  0
  2  3  1  0
  3  4  1  0
  4  5  2  0
  4  6  1  0
  6  7  1  0
  6  8  1  0
  8  9  1  0
  9 10  2  0
 10 11  1  0
 11 12  2  0
 11 13  1  0
 10 14  1  0
 14 15  1  0
 15 16  1  0
 16 17  2  0
 17 18  1  0
 18 19  2  0
 19 20  1  0
 20 21  2  0
 21 22  1  0
 22 23  2  0
 23 24  1  0
 24 25  2  0
 14 26  1  0
 26 27  2  0
 27 28  1  0
 28 29  2  0
 29 30  1  0
 29 31  1  0
 31 32  2  0
 32  9  1  0
 25 16  1  0
 32 26  1  0
 25 20  1  0
  1 33  1  0
  1 34  1  0
  1 35  1  0
  2 36  1  0
  2 37  1  0
  7 38  1  0
  7 39  1  0
  7 40  1  0
  8 41  1  0
  8 42  1  0
 15 43  1  0
 15 44  1  0
 17 45  1  0
 18 46  1  0
 19 47  1  0
 21 48  1  0
 22 49  1  0
 23 50  1  0
 24 51  1  0
 27 52  1  0
 28 53  1  0
 31 54  1  0
M  CHG  1  13  -1
M  END
>  <meeko>  (64) 
{"free_energy": -6.33, "intermolecular_energy": -8.71, "internal_energy": -1.95, "cluster_size": 167, "cluster_id": 22, "rank_in_cluster": 8}

$$$$

     RDKit          3D

 54 57  0  0  0  0  0  0  0  0999 V2000
   12.9780   40.6830    8.8990 C   0  0  0  0  0  0  0  0  0  0  0  0
   12.3500   41.7150    9.8400 C   0  0  0  0  0  0  0  0  0  0  0  0
   12.4280   41.2390   11.1740 O   0  0  0  0  0  0  0  0  0  0  0  0
   12.4370   42.1120   12.2040 C   0  0  0  0  0  0  0  0  0  0  0  0
   13.3660   42.8900   12.4250 O   0  0  0  0  0  0  0  0  0  0  0  0
   11.2590   42.0000   12.9540 N   0  0  0  0  0  0  0  0  0  0  0  0
    9.9740   41.6510   12.3390 C   0  0  0  0  0  0  0  0  0  0  0  0
   11.2480   42.2570   14.4000 C   0  0  0  0  0  0  0  0  0  0  0  0
   11.5720   41.0200   15.2030 C   0  0  0  0  0  0  0  0  0  0  0  0
   10.8260   40.4130   16.1980 C   0  0  0  0  0  0  0  0  0  0  0  0
    9.4800   40.7790   16.7390 C   0  0  0  0  0  0  0  0  0  0  0  0
    8.9390   41.8320   16.3400 O   0  0  0  0  0  0  0  0  0  0  0  0
    8.9170   40.0550   17.5890 O   0  0  0  0  0  1  0  0  0  0  0  0
   11.5570   39.3190   16.7100 N   0  0  0  0  0  0  0  0  0  0  0  0
   11.1670   38.3770   17.7640 C   0  0  0  0  0  0  0  0  0  0  0  0
   10.6690   37.0160   17.2610 C   0  0  0  0  0  0  0  0  0  0  0  0
   11.4650   36.2270   16.3940 C   0  0  0  0  0  0  0  0  0  0  0  0
   11.0130   34.9790   15.9300 C   0  0  0  0  0  0  0  0  0  0  0  0
    9.7540   34.4980   16.3240 C   0  0  0  0  0  0  0  0  0  0  0  0
    8.9440   35.2640   17.1840 C   0  0  0  0  0  0  0  0  0  0  0  0
    7.6820   34.7660   17.5690 C   0  0  0  0  0  0  0  0  0  0  0  0
    6.8560   35.5140   18.4260 C   0  0  0  0  0  0  0  0  0  0  0  0
    7.2910   36.7640   18.9010 C   0  0  0  0  0  0  0  0  0  0  0  0
    8.5490   37.2680   18.5200 C   0  0  0  0  0  0  0  0  0  0  0  0
    9.3940   36.5270   17.6570 C   0  0  0  0  0  0  0  0  0  0  0  0
   12.7710   39.2260   16.0420 C   0  0  0  0  0  0  0  0  0  0  0  0
   13.8540   38.3330   16.1800 C   0  0  0  0  0  0  0  0  0  0  0  0
   14.9800   38.4640   15.3510 C   0  0  0  0  0  0  0  0  0  0  0  0
   15.0200   39.4860   14.3860 C   0  0  0  0  0  0  0  0  0  0  0  0
   16.1010   39.6150   13.5810 F   0  0  0  0  0  0  0  0  0  0  0  0
   13.9360   40.3760   14.2570 C   0  0  0  0  0  0  0  0  0  0  0  0
   12.7900   40.2730   15.0830 C   0  0  0  0  0  0  0  0  0  0  0  0
   13.4597   39.8915    9.4919 H   0  0  0  0  0  0  0  0  0  0  0  0
   12.1955   40.2412    8.2646 H   0  0  0  0  0  0  0  0  0  0  0  0
   13.7300   41.1750    8.2646 H   0  0  0  0  0  0  0  0  0  0  0  0
   12.8939   42.6675    9.7570 H   0  0  0  0  0  0  0  0  0  0  0  0
   11.2966   41.8726    9.5651 H   0  0  0  0  0  0  0  0  0  0  0  0
    9.2331   41.4498   13.1268 H   0  0  0  0  0  0  0  0  0  0  0  0
    9.6272   42.4875   11.7145 H   0  0  0  0  0  0  0  0  0  0  0  0
   10.0980   40.7540   11.7145 H   0  0  0  0  0  0  0  0  0  0  0  0
   11.9945   43.0323   14.6274 H   0  0  0  0  0  0  0  0  0  0  0  0
   10.2344   42.5827   14.6768 H   0  0  0  0  0  0  0  0  0  0  0  0
   12.0414   38.2041   18.4086 H   0  0  0  0  0  0  0  0  0  0  0  0
   10.3207   38.8391   18.2935 H   0  0  0  0  0  0  0  0  0  0  0  0
   12.4520   36.5966   16.0790 H   0  0  0  0  0  0  0  0  0  0  0  0
   11.6455   34.3797   15.2586 H   0  0  0  0  0  0  0  0  0  0  0  0
    9.4002   33.5219   15.9605 H   0  0  0  0  0  0  0  0  0  0  0  0
    7.3425   33.7880   17.1971 H   0  0  0  0  0  0  0  0  0  0  0  0
    5.8722   35.1226   18.7242 H   0  0  0  0  0  0  0  0  0  0  0  0
    6.6462   37.3499   19.5725 H   0  0  0  0  0  0  0  0  0  0  0  0
    8.8795   38.2474   18.8962 H   0  0  0  0  0  0  0  0  0  0  0  0
   13.8167   37.5349   16.9361 H   0  0  0  0  0  0  0  0  0  0  0  0
   15.8270   37.7701   15.4561 H   0  0  0  0  0  0  0  0  0  0  0  0
   13.9805   41.1698   13.4968 H   0  0  0  0  0  0  0  0  0  0  0  0
  1  2  1  0
  2  3  1  0
  3  4  1  0
  4  5  2  0
  4  6  1  0
  6  7  1  0
  6  8  1  0
  8  9  1  0
  9 10  2  0
 10 11  1  0
 11 12  2  0
 11 13  1  0
 10 14  1  0
 14 15  1  0
 15 16  1  0
 16 17  2  0
 17 18  1  0
 18 19  2  0
 19 20  1  0
 20 21  2  0
 21 22  1  0
 22 23  2  0
 23 24  1  0
 24 25  2  0
 14 26  1  0
 26 27  2  0
 27 28  1  0
 28 29  2  0
 29 30  1  0
 29 31  1  0
 31 32  2  0
 32  9  1  0
 25 16  1  0
 32 26  1  0
 25 20  1  0
  1 33  1  0
  1 34  1  0
  1 35  1  0
  2 36  1  0
  2 37  1  0
  7 38  1  0
  7 39  1  0
  7 40  1  0
  8 41  1  0
  8 42  1  0
 15 43  1  0
 15 44  1  0
 17 45  1  0
 18 46  1  0
 19 47  1  0
 21 48  1  0
 22 49  1  0
 23 50  1  0
 24 51  1  0
 27 52  1  0
 28 53  1  0
 31 54  1  0
M  CHG  1  13  -1
M  END
>  <meeko>  (65) 
{"free_energy": -4.1, "intermolecular_energy": -6.49, "internal_energy": -1.69, "cluster_size": 1, "cluster_id": 309, "rank_in_cluster": 1}

$$$$

     RDKit          3D

 54 57  0  0  0  0  0  0  0  0999 V2000
   15.6320   40.1190    7.5820 C   0  0  0  0  0  0  0  0  0  0  0  0
   15.2880   38.8310    8.3350 C   0  0  0  0  0  0  0  0  0  0  0  0
   14.6780   39.1620    9.5720 O   0  0  0  0  0  0  0  0  0  0  0  0
   14.4870   38.2090   10.5090 C   0  0  0  0  0  0  0  0  0  0  0  0
   14.3210   37.0180   10.2390 O   0  0  0  0  0  0  0  0  0  0  0  0
   14.5140   38.7680   11.7920 N   0  0  0  0  0  0  0  0  0  0  0  0
   15.5340   38.4020   12.7820 C   0  0  0  0  0  0  0  0  0  0  0  0
   13.4960   39.7360   12.2230 C   0  0  0  0  0  0  0  0  0  0  0  0
   12.0960   39.1800   12.1140 C   0  0  0  0  0  0  0  0  0  0  0  0
   11.1900   39.3110   11.0770 C   0  0  0  0  0  0  0  0  0  0  0  0
   11.3420   40.0040    9.7590 C   0  0  0  0  0  0  0  0  0  0  0  0
   11.6600   39.3280    8.7580 O   0  0  0  0  0  0  0  0  0  0  0  0
   11.1720   41.2400    9.6670 O   0  0  0  0  0  1  0  0  0  0  0  0
    9.9840   38.6770   11.4440 N   0  0  0  0  0  0  0  0  0  0  0  0
    8.7480   38.5500   10.6660 C   0  0  0  0  0  0  0  0  0  0  0  0
    8.6620   37.2900    9.7940 C   0  0  0  0  0  0  0  0  0  0  0  0
    9.2150   36.0620   10.2360 C   0  0  0  0  0  0  0  0  0  0  0  0
    9.1380   34.9060    9.4410 C   0  0  0  0  0  0  0  0  0  0  0  0
    8.5090   34.9560    8.1870 C   0  0  0  0  0  0  0  0  0  0  0  0
    7.9540   36.1650    7.7250 C   0  0  0  0  0  0  0  0  0  0  0  0
    7.3260   36.1970    6.4620 C   0  0  0  0  0  0  0  0  0  0  0  0
    6.7650   37.3930    5.9800 C   0  0  0  0  0  0  0  0  0  0  0  0
    6.8300   38.5610    6.7610 C   0  0  0  0  0  0  0  0  0  0  0  0
    7.4560   38.5350    8.0220 C   0  0  0  0  0  0  0  0  0  0  0  0
    8.0260   37.3390    8.5230 C   0  0  0  0  0  0  0  0  0  0  0  0
   10.1180   38.1400   12.7180 C   0  0  0  0  0  0  0  0  0  0  0  0
    9.2170   37.4310   13.5380 C   0  0  0  0  0  0  0  0  0  0  0  0
    9.6260   36.9870   14.8070 C   0  0  0  0  0  0  0  0  0  0  0  0
   10.9330   37.2520   15.2500 C   0  0  0  0  0  0  0  0  0  0  0  0
   11.3350   36.8230   16.4700 F   0  0  0  0  0  0  0  0  0  0  0  0
   11.8260   37.9640   14.4260 C   0  0  0  0  0  0  0  0  0  0  0  0
   11.4410   38.4300   13.1460 C   0  0  0  0  0  0  0  0  0  0  0  0
   15.8460   40.9202    8.3047 H   0  0  0  0  0  0  0  0  0  0  0  0
   16.5163   39.9493    6.9502 H   0  0  0  0  0  0  0  0  0  0  0  0
   14.7808   40.4128    6.9502 H   0  0  0  0  0  0  0  0  0  0  0  0
   14.5936   38.2270    7.7325 H   0  0  0  0  0  0  0  0  0  0  0  0
   16.2064   38.2542    8.5188 H   0  0  0  0  0  0  0  0  0  0  0  0
   15.1304   38.5468   13.7950 H   0  0  0  0  0  0  0  0  0  0  0  0
   15.8147   37.3471   12.6465 H   0  0  0  0  0  0  0  0  0  0  0  0
   16.4213   39.0378   12.6465 H   0  0  0  0  0  0  0  0  0  0  0  0
   13.6880   40.0086   13.2712 H   0  0  0  0  0  0  0  0  0  0  0  0
   13.5630   40.6127   11.5620 H   0  0  0  0  0  0  0  0  0  0  0  0
    7.9015   38.5383   11.3683 H   0  0  0  0  0  0  0  0  0  0  0  0
    8.7279   39.4060    9.9754 H   0  0  0  0  0  0  0  0  0  0  0  0
    9.7119   36.0133   11.2162 H   0  0  0  0  0  0  0  0  0  0  0  0
    9.5709   33.9612    9.8015 H   0  0  0  0  0  0  0  0  0  0  0  0
    8.4496   34.0506    7.5651 H   0  0  0  0  0  0  0  0  0  0  0  0
    7.2750   35.2830    5.8521 H   0  0  0  0  0  0  0  0  0  0  0  0
    6.2766   37.4151    4.9946 H   0  0  0  0  0  0  0  0  0  0  0  0
    6.3907   39.4971    6.3857 H   0  0  0  0  0  0  0  0  0  0  0  0
    7.5029   39.4539    8.6249 H   0  0  0  0  0  0  0  0  0  0  0  0
    8.1955   37.2256   13.1852 H   0  0  0  0  0  0  0  0  0  0  0  0
    8.9260   36.4343   15.4509 H   0  0  0  0  0  0  0  0  0  0  0  0
   12.8465   38.1626   14.7854 H   0  0  0  0  0  0  0  0  0  0  0  0
  1  2  1  0
  2  3  1  0
  3  4  1  0
  4  5  2  0
  4  6  1  0
  6  7  1  0
  6  8  1  0
  8  9  1  0
  9 10  2  0
 10 11  1  0
 11 12  2  0
 11 13  1  0
 10 14  1  0
 14 15  1  0
 15 16  1  0
 16 17  2  0
 17 18  1  0
 18 19  2  0
 19 20  1  0
 20 21  2  0
 21 22  1  0
 22 23  2  0
 23 24  1  0
 24 25  2  0
 14 26  1  0
 26 27  2  0
 27 28  1  0
 28 29  2  0
 29 30  1  0
 29 31  1  0
 31 32  2  0
 32  9  1  0
 25 16  1  0
 32 26  1  0
 25 20  1  0
  1 33  1  0
  1 34  1  0
  1 35  1  0
  2 36  1  0
  2 37  1  0
  7 38  1  0
  7 39  1  0
  7 40  1  0
  8 41  1  0
  8 42  1  0
 15 43  1  0
 15 44  1  0
 17 45  1  0
 18 46  1  0
 19 47  1  0
 21 48  1  0
 22 49  1  0
 23 50  1  0
 24 51  1  0
 27 52  1  0
 28 53  1  0
 31 54  1  0
M  CHG  1  13  -1
M  END
>  <meeko>  (66) 
{"free_energy": -6.99, "intermolecular_energy": -9.38, "internal_energy": -1.92, "cluster_size": 292, "cluster_id": 10, "rank_in_cluster": 17}

$$$$

     RDKit          3D

 54 57  0  0  0  0  0  0  0  0999 V2000
   12.9140   38.4380   12.3130 C   0  0  0  0  0  0  0  0  0  0  0  0
   13.1700   39.7320   11.5360 C   0  0  0  0  0  0  0  0  0  0  0  0
   13.0700   39.4690   10.1450 O   0  0  0  0  0  0  0  0  0  0  0  0
   11.8900   39.6320    9.5090 C   0  0  0  0  0  0  0  0  0  0  0  0
   11.4150   38.7980    8.7370 O   0  0  0  0  0  0  0  0  0  0  0  0
   11.3080   40.8570    9.8600 N   0  0  0  0  0  0  0  0  0  0  0  0
   12.0250   42.1300    9.7210 C   0  0  0  0  0  0  0  0  0  0  0  0
    9.9500   40.9240   10.4160 C   0  0  0  0  0  0  0  0  0  0  0  0
    9.7600   39.9760   11.5760 C   0  0  0  0  0  0  0  0  0  0  0  0
    9.9340   40.2140   12.9280 C   0  0  0  0  0  0  0  0  0  0  0  0
   10.3240   41.4750   13.6320 C   0  0  0  0  0  0  0  0  0  0  0  0
    9.5240   41.9780   14.4500 O   0  0  0  0  0  0  0  0  0  0  0  0
   11.4220   42.0240   13.3920 O   0  0  0  0  0  1  0  0  0  0  0  0
    9.7030   39.0140   13.6340 N   0  0  0  0  0  0  0  0  0  0  0  0
    9.7610   38.7830   15.0800 C   0  0  0  0  0  0  0  0  0  0  0  0
   10.1340   37.3520   15.4900 C   0  0  0  0  0  0  0  0  0  0  0  0
   11.4610   36.8760   15.3410 C   0  0  0  0  0  0  0  0  0  0  0  0
   11.8070   35.5660   15.7160 C   0  0  0  0  0  0  0  0  0  0  0  0
   10.8310   34.7060   16.2440 C   0  0  0  0  0  0  0  0  0  0  0  0
    9.5060   35.1540   16.4010 C   0  0  0  0  0  0  0  0  0  0  0  0
    8.5380   34.2770   16.9330 C   0  0  0  0  0  0  0  0  0  0  0  0
    7.2080   34.7030   17.0970 C   0  0  0  0  0  0  0  0  0  0  0  0
    6.8430   36.0100   16.7300 C   0  0  0  0  0  0  0  0  0  0  0  0
    7.8030   36.8910   16.1970 C   0  0  0  0  0  0  0  0  0  0  0  0
    9.1480   36.4780   16.0250 C   0  0  0  0  0  0  0  0  0  0  0  0
    9.3810   38.0070   12.7330 C   0  0  0  0  0  0  0  0  0  0  0  0
    9.0790   36.6420   12.9170 C   0  0  0  0  0  0  0  0  0  0  0  0
    8.7750   35.8360   11.8080 C   0  0  0  0  0  0  0  0  0  0  0  0
    8.7710   36.3970   10.5190 C   0  0  0  0  0  0  0  0  0  0  0  0
    8.4740   35.6260    9.4460 F   0  0  0  0  0  0  0  0  0  0  0  0
    9.0770   37.7600   10.3430 C   0  0  0  0  0  0  0  0  0  0  0  0
    9.3940   38.5960   11.4410 C   0  0  0  0  0  0  0  0  0  0  0  0
   12.9548   38.6444   13.3927 H   0  0  0  0  0  0  0  0  0  0  0  0
   11.9205   38.0442   12.0523 H   0  0  0  0  0  0  0  0  0  0  0  0
   13.6827   37.6956   12.0523 H   0  0  0  0  0  0  0  0  0  0  0  0
   12.4229   40.4869   11.8223 H   0  0  0  0  0  0  0  0  0  0  0  0
   14.1764   40.1099   11.7691 H   0  0  0  0  0  0  0  0  0  0  0  0
   12.2523   42.5336   10.7187 H   0  0  0  0  0  0  0  0  0  0  0  0
   12.9626   41.9645    9.1701 H   0  0  0  0  0  0  0  0  0  0  0  0
   11.3975   42.8460    9.1701 H   0  0  0  0  0  0  0  0  0  0  0  0
    9.7596   41.9504   10.7627 H   0  0  0  0  0  0  0  0  0  0  0  0
    9.2461   40.6318    9.6229 H   0  0  0  0  0  0  0  0  0  0  0  0
   10.5100   39.4669   15.5058 H   0  0  0  0  0  0  0  0  0  0  0  0
    8.7446   38.9590   15.4621 H   0  0  0  0  0  0  0  0  0  0  0  0
   12.2318   37.5419   14.9256 H   0  0  0  0  0  0  0  0  0  0  0  0
   12.8425   35.2148   15.5957 H   0  0  0  0  0  0  0  0  0  0  0  0
   11.1022   33.6806   16.5354 H   0  0  0  0  0  0  0  0  0  0  0  0
    8.8248   33.2549   17.2210 H   0  0  0  0  0  0  0  0  0  0  0  0
    6.4556   34.0157   17.5111 H   0  0  0  0  0  0  0  0  0  0  0  0
    5.8035   36.3455   16.8598 H   0  0  0  0  0  0  0  0  0  0  0  0
    7.5062   37.9108   15.9109 H   0  0  0  0  0  0  0  0  0  0  0  0
    9.0815   36.2090   13.9282 H   0  0  0  0  0  0  0  0  0  0  0  0
    8.5410   34.7702   11.9473 H   0  0  0  0  0  0  0  0  0  0  0  0
    9.0696   38.1854    9.3286 H   0  0  0  0  0  0  0  0  0  0  0  0
  1  2  1  0
  2  3  1  0
  3  4  1  0
  4  5  2  0
  4  6  1  0
  6  7  1  0
  6  8  1  0
  8  9  1  0
  9 10  2  0
 10 11  1  0
 11 12  2  0
 11 13  1  0
 10 14  1  0
 14 15  1  0
 15 16  1  0
 16 17  2  0
 17 18  1  0
 18 19  2  0
 19 20  1  0
 20 21  2  0
 21 22  1  0
 22 23  2  0
 23 24  1  0
 24 25  2  0
 14 26  1  0
 26 27  2  0
 27 28  1  0
 28 29  2  0
 29 30  1  0
 29 31  1  0
 31 32  2  0
 32  9  1  0
 25 16  1  0
 32 26  1  0
 25 20  1  0
  1 33  1  0
  1 34  1  0
  1 35  1  0
  2 36  1  0
  2 37  1  0
  7 38  1  0
  7 39  1  0
  7 40  1  0
  8 41  1  0
  8 42  1  0
 15 43  1  0
 15 44  1  0
 17 45  1  0
 18 46  1  0
 19 47  1  0
 21 48  1  0
 22 49  1  0
 23 50  1  0
 24 51  1  0
 27 52  1  0
 28 53  1  0
 31 54  1  0
M  CHG  1  13  -1
M  END
>  <meeko>  (67) 
{"free_energy": -5.97, "intermolecular_energy": -8.36, "internal_energy": -2.33, "cluster_size": 253, "cluster_id": 8, "rank_in_cluster": 149}

$$$$

     RDKit          3D

 54 57  0  0  0  0  0  0  0  0999 V2000
   17.0330   40.5190    6.4120 C   0  0  0  0  0  0  0  0  0  0  0  0
   15.9590   40.2560    7.4700 C   0  0  0  0  0  0  0  0  0  0  0  0
   16.4430   40.6670    8.7390 O   0  0  0  0  0  0  0  0  0  0  0  0
   16.0690   40.0030    9.8530 C   0  0  0  0  0  0  0  0  0  0  0  0
   16.6820   39.0330   10.3020 O   0  0  0  0  0  0  0  0  0  0  0  0
   14.9150   40.5770   10.4030 N   0  0  0  0  0  0  0  0  0  0  0  0
   14.3940   41.8700    9.9480 C   0  0  0  0  0  0  0  0  0  0  0  0
   14.1820   39.9180   11.4920 C   0  0  0  0  0  0  0  0  0  0  0  0
   12.7140   40.2740   11.4910 C   0  0  0  0  0  0  0  0  0  0  0  0
   11.7810   40.1000   10.4840 C   0  0  0  0  0  0  0  0  0  0  0  0
   11.9420   39.4830    9.1300 C   0  0  0  0  0  0  0  0  0  0  0  0
   11.2930   38.4500    8.8600 O   0  0  0  0  0  0  0  0  0  0  0  0
   12.7260   39.9820    8.2930 O   0  0  0  0  0  1  0  0  0  0  0  0
   10.5480   40.6410   10.9080 N   0  0  0  0  0  0  0  0  0  0  0  0
    9.2730   40.6780   10.1860 C   0  0  0  0  0  0  0  0  0  0  0  0
    8.7610   39.3120    9.7100 C   0  0  0  0  0  0  0  0  0  0  0  0
    8.2500   39.1450    8.3990 C   0  0  0  0  0  0  0  0  0  0  0  0
    7.7800   37.8950    7.9600 C   0  0  0  0  0  0  0  0  0  0  0  0
    7.8090   36.7900    8.8250 C   0  0  0  0  0  0  0  0  0  0  0  0
    8.3110   36.9310   10.1320 C   0  0  0  0  0  0  0  0  0  0  0  0
    8.3330   35.8100   10.9880 C   0  0  0  0  0  0  0  0  0  0  0  0
    8.8290   35.9280   12.2980 C   0  0  0  0  0  0  0  0  0  0  0  0
    9.3050   37.1690   12.7570 C   0  0  0  0  0  0  0  0  0  0  0  0
    9.2850   38.2920   11.9080 C   0  0  0  0  0  0  0  0  0  0  0  0
    8.7890   38.1910   10.5850 C   0  0  0  0  0  0  0  0  0  0  0  0
   10.6930   41.1620   12.1870 C   0  0  0  0  0  0  0  0  0  0  0  0
    9.7840   41.8160   13.0440 C   0  0  0  0  0  0  0  0  0  0  0  0
   10.2010   42.2410   14.3160 C   0  0  0  0  0  0  0  0  0  0  0  0
   11.5250   42.0090   14.7280 C   0  0  0  0  0  0  0  0  0  0  0  0
   11.9330   42.4120   15.9550 F   0  0  0  0  0  0  0  0  0  0  0  0
   12.4290   41.3580   13.8660 C   0  0  0  0  0  0  0  0  0  0  0  0
   12.0390   40.9250   12.5750 C   0  0  0  0  0  0  0  0  0  0  0  0
   17.9867   40.7525    6.9078 H   0  0  0  0  0  0  0  0  0  0  0  0
   17.1557   39.6244    5.7838 H   0  0  0  0  0  0  0  0  0  0  0  0
   16.7285   41.3691    5.7838 H   0  0  0  0  0  0  0  0  0  0  0  0
   15.0506   40.8242    7.2211 H   0  0  0  0  0  0  0  0  0  0  0  0
   15.7207   39.1824    7.4956 H   0  0  0  0  0  0  0  0  0  0  0  0
   14.1435   42.4918   10.8201 H   0  0  0  0  0  0  0  0  0  0  0  0
   15.1569   42.3797    9.3413 H   0  0  0  0  0  0  0  0  0  0  0  0
   13.4908   41.7084    9.3413 H   0  0  0  0  0  0  0  0  0  0  0  0
   14.2821   38.8286   11.3775 H   0  0  0  0  0  0  0  0  0  0  0  0
   14.6117   40.2624   12.4442 H   0  0  0  0  0  0  0  0  0  0  0  0
    8.5148   41.1137   10.8533 H   0  0  0  0  0  0  0  0  0  0  0  0
    9.4489   41.2750    9.2790 H   0  0  0  0  0  0  0  0  0  0  0  0
    8.2207   40.0059    7.7149 H   0  0  0  0  0  0  0  0  0  0  0  0
    7.3892   37.7828    6.9379 H   0  0  0  0  0  0  0  0  0  0  0  0
    7.4390   35.8129    8.4809 H   0  0  0  0  0  0  0  0  0  0  0  0
    7.9604   34.8393   10.6289 H   0  0  0  0  0  0  0  0  0  0  0  0
    8.8447   35.0516   12.9625 H   0  0  0  0  0  0  0  0  0  0  0  0
    9.6939   37.2626   13.7817 H   0  0  0  0  0  0  0  0  0  0  0  0
    9.6588   39.2588   12.2763 H   0  0  0  0  0  0  0  0  0  0  0  0
    8.7490   41.9932   12.7165 H   0  0  0  0  0  0  0  0  0  0  0  0
    9.4951   42.7529   14.9866 H   0  0  0  0  0  0  0  0  0  0  0  0
   13.4612   41.1819   14.2030 H   0  0  0  0  0  0  0  0  0  0  0  0
  1  2  1  0
  2  3  1  0
  3  4  1  0
  4  5  2  0
  4  6  1  0
  6  7  1  0
  6  8  1  0
  8  9  1  0
  9 10  2  0
 10 11  1  0
 11 12  2  0
 11 13  1  0
 10 14  1  0
 14 15  1  0
 15 16  1  0
 16 17  2  0
 17 18  1  0
 18 19  2  0
 19 20  1  0
 20 21  2  0
 21 22  1  0
 22 23  2  0
 23 24  1  0
 24 25  2  0
 14 26  1  0
 26 27  2  0
 27 28  1  0
 28 29  2  0
 29 30  1  0
 29 31  1  0
 31 32  2  0
 32  9  1  0
 25 16  1  0
 32 26  1  0
 25 20  1  0
  1 33  1  0
  1 34  1  0
  1 35  1  0
  2 36  1  0
  2 37  1  0
  7 38  1  0
  7 39  1  0
  7 40  1  0
  8 41  1  0
  8 42  1  0
 15 43  1  0
 15 44  1  0
 17 45  1  0
 18 46  1  0
 19 47  1  0
 21 48  1  0
 22 49  1  0
 23 50  1  0
 24 51  1  0
 27 52  1  0
 28 53  1  0
 31 54  1  0
M  CHG  1  13  -1
M  END
>  <meeko>  (68) 
{"free_energy": -5.35, "intermolecular_energy": -7.73, "internal_energy": -1.93, "cluster_size": 61, "cluster_id": 70, "rank_in_cluster": 24}

$$$$

     RDKit          3D

 54 57  0  0  0  0  0  0  0  0999 V2000
    9.8540   43.7410   14.5360 C   0  0  0  0  0  0  0  0  0  0  0  0
    8.7300   43.0710   13.7410 C   0  0  0  0  0  0  0  0  0  0  0  0
    9.1800   42.8160   12.4200 O   0  0  0  0  0  0  0  0  0  0  0  0
    8.8490   41.6610   11.8040 C   0  0  0  0  0  0  0  0  0  0  0  0
    7.7230   41.4250   11.3650 O   0  0  0  0  0  0  0  0  0  0  0  0
    9.9560   40.8040   11.7400 N   0  0  0  0  0  0  0  0  0  0  0  0
   10.3410   40.1180   10.5010 C   0  0  0  0  0  0  0  0  0  0  0  0
   10.7740   40.5260   12.9280 C   0  0  0  0  0  0  0  0  0  0  0  0
   10.1480   39.4810   13.8220 C   0  0  0  0  0  0  0  0  0  0  0  0
    9.9200   39.5310   15.1860 C   0  0  0  0  0  0  0  0  0  0  0  0
   10.1900   40.6360   16.1580 C   0  0  0  0  0  0  0  0  0  0  0  0
    9.2500   41.3910   16.4860 O   0  0  0  0  0  0  0  0  0  0  0  0
   11.3400   40.8120   16.6180 O   0  0  0  0  0  1  0  0  0  0  0  0
    9.3710   38.2990   15.6000 N   0  0  0  0  0  0  0  0  0  0  0  0
    8.9600   37.8930   16.9470 C   0  0  0  0  0  0  0  0  0  0  0  0
   10.0950   37.8310   17.9770 C   0  0  0  0  0  0  0  0  0  0  0  0
   10.0210   38.5690   19.1850 C   0  0  0  0  0  0  0  0  0  0  0  0
   11.0590   38.5150   20.1320 C   0  0  0  0  0  0  0  0  0  0  0  0
   12.1920   37.7240   19.8870 C   0  0  0  0  0  0  0  0  0  0  0  0
   12.2910   36.9830   18.6940 C   0  0  0  0  0  0  0  0  0  0  0  0
   13.4360   36.1930   18.4650 C   0  0  0  0  0  0  0  0  0  0  0  0
   13.5560   35.4450   17.2800 C   0  0  0  0  0  0  0  0  0  0  0  0
   12.5280   35.4840   16.3210 C   0  0  0  0  0  0  0  0  0  0  0  0
   11.3820   36.2710   16.5440 C   0  0  0  0  0  0  0  0  0  0  0  0
   11.2450   37.0310   17.7320 C   0  0  0  0  0  0  0  0  0  0  0  0
    9.2490   37.4590   14.5010 C   0  0  0  0  0  0  0  0  0  0  0  0
    8.7790   36.1350   14.3770 C   0  0  0  0  0  0  0  0  0  0  0  0
    8.7570   35.5150   13.1170 C   0  0  0  0  0  0  0  0  0  0  0  0
    9.2020   36.2200   11.9850 C   0  0  0  0  0  0  0  0  0  0  0  0
    9.1790   35.6290   10.7670 F   0  0  0  0  0  0  0  0  0  0  0  0
    9.6730   37.5400   12.1170 C   0  0  0  0  0  0  0  0  0  0  0  0
    9.7150   38.1900   13.3750 C   0  0  0  0  0  0  0  0  0  0  0  0
    9.6606   43.6257   15.6127 H   0  0  0  0  0  0  0  0  0  0  0  0
   10.8143   43.2678   14.2832 H   0  0  0  0  0  0  0  0  0  0  0  0
    9.8946   44.8108   14.2832 H   0  0  0  0  0  0  0  0  0  0  0  0
    8.4523   42.1227   14.2244 H   0  0  0  0  0  0  0  0  0  0  0  0
    7.8530   43.7343   13.7108 H   0  0  0  0  0  0  0  0  0  0  0  0
   10.8657   39.1831   10.7473 H   0  0  0  0  0  0  0  0  0  0  0  0
    9.4397   39.8888    9.9135 H   0  0  0  0  0  0  0  0  0  0  0  0
   11.0062   40.7679    9.9135 H   0  0  0  0  0  0  0  0  0  0  0  0
   11.7614   40.1673   12.6019 H   0  0  0  0  0  0  0  0  0  0  0  0
   10.8567   41.4583   13.5060 H   0  0  0  0  0  0  0  0  0  0  0  0
    8.2105   38.6131   17.3072 H   0  0  0  0  0  0  0  0  0  0  0  0
    8.5703   36.8685   16.8551 H   0  0  0  0  0  0  0  0  0  0  0  0
    9.1378   39.1936   19.3847 H   0  0  0  0  0  0  0  0  0  0  0  0
   10.9829   39.0928   21.0649 H   0  0  0  0  0  0  0  0  0  0  0  0
   13.0039   37.6829   20.6281 H   0  0  0  0  0  0  0  0  0  0  0  0
   14.2389   36.1615   19.2163 H   0  0  0  0  0  0  0  0  0  0  0  0
   14.4516   34.8311   17.1037 H   0  0  0  0  0  0  0  0  0  0  0  0
   12.6195   34.8982   15.3945 H   0  0  0  0  0  0  0  0  0  0  0  0
   10.5840   36.2961   15.7874 H   0  0  0  0  0  0  0  0  0  0  0  0
    8.4302   35.5888   15.2658 H   0  0  0  0  0  0  0  0  0  0  0  0
    8.3930   34.4819   13.0162 H   0  0  0  0  0  0  0  0  0  0  0  0
   10.0166   38.0795   11.2221 H   0  0  0  0  0  0  0  0  0  0  0  0
  1  2  1  0
  2  3  1  0
  3  4  1  0
  4  5  2  0
  4  6  1  0
  6  7  1  0
  6  8  1  0
  8  9  1  0
  9 10  2  0
 10 11  1  0
 11 12  2  0
 11 13  1  0
 10 14  1  0
 14 15  1  0
 15 16  1  0
 16 17  2  0
 17 18  1  0
 18 19  2  0
 19 20  1  0
 20 21  2  0
 21 22  1  0
 22 23  2  0
 23 24  1  0
 24 25  2  0
 14 26  1  0
 26 27  2  0
 27 28  1  0
 28 29  2  0
 29 30  1  0
 29 31  1  0
 31 32  2  0
 32  9  1  0
 25 16  1  0
 32 26  1  0
 25 20  1  0
  1 33  1  0
  1 34  1  0
  1 35  1  0
  2 36  1  0
  2 37  1  0
  7 38  1  0
  7 39  1  0
  7 40  1  0
  8 41  1  0
  8 42  1  0
 15 43  1  0
 15 44  1  0
 17 45  1  0
 18 46  1  0
 19 47  1  0
 21 48  1  0
 22 49  1  0
 23 50  1  0
 24 51  1  0
 27 52  1  0
 28 53  1  0
 31 54  1  0
M  CHG  1  13  -1
M  END
>  <meeko>  (69) 
{"free_energy": -3.93, "intermolecular_energy": -6.32, "internal_energy": -2.3, "cluster_size": 3, "cluster_id": 249, "rank_in_cluster": 3}

$$$$

     RDKit          3D

 54 57  0  0  0  0  0  0  0  0999 V2000
    7.0570   35.1060    6.4630 C   0  0  0  0  0  0  0  0  0  0  0  0
    6.9880   36.4440    7.2030 C   0  0  0  0  0  0  0  0  0  0  0  0
    8.1810   36.6270    7.9480 O   0  0  0  0  0  0  0  0  0  0  0  0
    8.4060   35.8890    9.0560 C   0  0  0  0  0  0  0  0  0  0  0  0
    7.9250   34.7690    9.2340 O   0  0  0  0  0  0  0  0  0  0  0  0
    9.2510   36.5740    9.9400 N   0  0  0  0  0  0  0  0  0  0  0  0
   10.7090   36.4150    9.9070 C   0  0  0  0  0  0  0  0  0  0  0  0
    8.7100   37.4710   10.9700 C   0  0  0  0  0  0  0  0  0  0  0  0
    9.6590   37.6460   12.1320 C   0  0  0  0  0  0  0  0  0  0  0  0
    9.5670   37.1280   13.4120 C   0  0  0  0  0  0  0  0  0  0  0  0
    8.5310   36.2250   14.0030 C   0  0  0  0  0  0  0  0  0  0  0  0
    8.4650   35.0440   13.6020 O   0  0  0  0  0  0  0  0  0  0  0  0
    7.7350   36.6510   14.8680 O   0  0  0  0  0  1  0  0  0  0  0  0
   10.6510   37.6110   14.1760 N   0  0  0  0  0  0  0  0  0  0  0  0
   10.9750   37.3270   15.5770 C   0  0  0  0  0  0  0  0  0  0  0  0
   10.4240   35.9980   16.1100 C   0  0  0  0  0  0  0  0  0  0  0  0
   11.0000   34.7640   15.7170 C   0  0  0  0  0  0  0  0  0  0  0  0
   10.4990   33.5440   16.2030 C   0  0  0  0  0  0  0  0  0  0  0  0
    9.4100   33.5350   17.0890 C   0  0  0  0  0  0  0  0  0  0  0  0
    8.8190   34.7470   17.4920 C   0  0  0  0  0  0  0  0  0  0  0  0
    7.7260   34.7190   18.3830 C   0  0  0  0  0  0  0  0  0  0  0  0
    7.1200   35.9180   18.7990 C   0  0  0  0  0  0  0  0  0  0  0  0
    7.6070   37.1490   18.3250 C   0  0  0  0  0  0  0  0  0  0  0  0
    8.6980   37.1840   17.4350 C   0  0  0  0  0  0  0  0  0  0  0  0
    9.3210   35.9860   17.0060 C   0  0  0  0  0  0  0  0  0  0  0  0
   11.4360   38.4390   13.3840 C   0  0  0  0  0  0  0  0  0  0  0  0
   12.6080   39.1720   13.6650 C   0  0  0  0  0  0  0  0  0  0  0  0
   13.2150   39.9370   12.6550 C   0  0  0  0  0  0  0  0  0  0  0  0
   12.6500   39.9640   11.3680 C   0  0  0  0  0  0  0  0  0  0  0  0
   13.2320   40.6960   10.3880 F   0  0  0  0  0  0  0  0  0  0  0  0
   11.4780   39.2320   11.0960 C   0  0  0  0  0  0  0  0  0  0  0  0
   10.8400   38.4580   12.0950 C   0  0  0  0  0  0  0  0  0  0  0  0
    7.0994   34.2847    7.1935 H   0  0  0  0  0  0  0  0  0  0  0  0
    6.1637   34.9896    5.8318 H   0  0  0  0  0  0  0  0  0  0  0  0
    7.9576   35.0821    5.8318 H   0  0  0  0  0  0  0  0  0  0  0  0
    6.8796   37.2617    6.4753 H   0  0  0  0  0  0  0  0  0  0  0  0
    6.1235   36.4460    7.8832 H   0  0  0  0  0  0  0  0  0  0  0  0
   11.0966   36.3727   10.9356 H   0  0  0  0  0  0  0  0  0  0  0  0
   10.9645   35.4837    9.3803 H   0  0  0  0  0  0  0  0  0  0  0  0
   11.1592   37.2694    9.3803 H   0  0  0  0  0  0  0  0  0  0  0  0
    8.5192   38.4553   10.5175 H   0  0  0  0  0  0  0  0  0  0  0  0
    7.7837   37.0208   11.3562 H   0  0  0  0  0  0  0  0  0  0  0  0
   12.0702   37.3079   15.6775 H   0  0  0  0  0  0  0  0  0  0  0  0
   10.4974   38.1199   16.1713 H   0  0  0  0  0  0  0  0  0  0  0  0
   11.8519   34.7611   15.0212 H   0  0  0  0  0  0  0  0  0  0  0  0
   10.9603   32.5960   15.8891 H   0  0  0  0  0  0  0  0  0  0  0  0
    9.0183   32.5797   17.4686 H   0  0  0  0  0  0  0  0  0  0  0  0
    7.3461   33.7556   18.7539 H   0  0  0  0  0  0  0  0  0  0  0  0
    6.2672   35.8929   19.4934 H   0  0  0  0  0  0  0  0  0  0  0  0
    7.1344   38.0875   18.6503 H   0  0  0  0  0  0  0  0  0  0  0  0
    9.0705   38.1521   17.0689 H   0  0  0  0  0  0  0  0  0  0  0  0
   13.0461   39.1447   14.6736 H   0  0  0  0  0  0  0  0  0  0  0  0
   14.1278   40.5120   12.8701 H   0  0  0  0  0  0  0  0  0  0  0  0
   11.0484   39.2624   10.0838 H   0  0  0  0  0  0  0  0  0  0  0  0
  1  2  1  0
  2  3  1  0
  3  4  1  0
  4  5  2  0
  4  6  1  0
  6  7  1  0
  6  8  1  0
  8  9  1  0
  9 10  2  0
 10 11  1  0
 11 12  2  0
 11 13  1  0
 10 14  1  0
 14 15  1  0
 15 16  1  0
 16 17  2  0
 17 18  1  0
 18 19  2  0
 19 20  1  0
 20 21  2  0
 21 22  1  0
 22 23  2  0
 23 24  1  0
 24 25  2  0
 14 26  1  0
 26 27  2  0
 27 28  1  0
 28 29  2  0
 29 30  1  0
 29 31  1  0
 31 32  2  0
 32  9  1  0
 25 16  1  0
 32 26  1  0
 25 20  1  0
  1 33  1  0
  1 34  1  0
  1 35  1  0
  2 36  1  0
  2 37  1  0
  7 38  1  0
  7 39  1  0
  7 40  1  0
  8 41  1  0
  8 42  1  0
 15 43  1  0
 15 44  1  0
 17 45  1  0
 18 46  1  0
 19 47  1  0
 21 48  1  0
 22 49  1  0
 23 50  1  0
 24 51  1  0
 27 52  1  0
 28 53  1  0
 31 54  1  0
M  CHG  1  13  -1
M  END
>  <meeko>  (70) 
{"free_energy": -7.04, "intermolecular_energy": -9.43, "internal_energy": -1.09, "cluster_size": 109, "cluster_id": 6, "rank_in_cluster": 11}

$$$$

     RDKit          3D

 54 57  0  0  0  0  0  0  0  0999 V2000
   11.2030   33.4730   15.6850 C   0  0  0  0  0  0  0  0  0  0  0  0
    9.8520   34.1430   15.4220 C   0  0  0  0  0  0  0  0  0  0  0  0
    9.8430   34.6790   14.1090 O   0  0  0  0  0  0  0  0  0  0  0  0
    8.8430   35.4970   13.7190 C   0  0  0  0  0  0  0  0  0  0  0  0
    8.0840   36.0640   14.5080 O   0  0  0  0  0  0  0  0  0  0  0  0
    8.8090   35.6020   12.3230 N   0  0  0  0  0  0  0  0  0  0  0  0
    7.6820   35.1000   11.5290 C   0  0  0  0  0  0  0  0  0  0  0  0
    9.9250   36.2000   11.5770 C   0  0  0  0  0  0  0  0  0  0  0  0
    9.5220   37.4680   10.8630 C   0  0  0  0  0  0  0  0  0  0  0  0
    9.7020   38.7810   11.2610 C   0  0  0  0  0  0  0  0  0  0  0  0
   10.3730   39.3240   12.4830 C   0  0  0  0  0  0  0  0  0  0  0  0
    9.6740   39.5880   13.4850 O   0  0  0  0  0  0  0  0  0  0  0  0
   11.6070   39.5280   12.4950 O   0  0  0  0  0  1  0  0  0  0  0  0
    9.1060   39.6320   10.3050 N   0  0  0  0  0  0  0  0  0  0  0  0
    9.0540   41.0970   10.2960 C   0  0  0  0  0  0  0  0  0  0  0  0
   10.4220   41.7910   10.3160 C   0  0  0  0  0  0  0  0  0  0  0  0
   11.2750   41.7460    9.1840 C   0  0  0  0  0  0  0  0  0  0  0  0
   12.5290   42.3810    9.1980 C   0  0  0  0  0  0  0  0  0  0  0  0
   12.9550   43.0710   10.3440 C   0  0  0  0  0  0  0  0  0  0  0  0
   12.1270   43.1280   11.4810 C   0  0  0  0  0  0  0  0  0  0  0  0
   12.5710   43.8260   12.6230 C   0  0  0  0  0  0  0  0  0  0  0  0
   11.7610   43.8960   13.7700 C   0  0  0  0  0  0  0  0  0  0  0  0
   10.5020   43.2680   13.7770 C   0  0  0  0  0  0  0  0  0  0  0  0
   10.0530   42.5700   12.6390 C   0  0  0  0  0  0  0  0  0  0  0  0
   10.8570   42.4900   11.4750 C   0  0  0  0  0  0  0  0  0  0  0  0
    8.5440   38.8620    9.2950 C   0  0  0  0  0  0  0  0  0  0  0  0
    7.8300   39.2150    8.1320 C   0  0  0  0  0  0  0  0  0  0  0  0
    7.3720   38.2140    7.2590 C   0  0  0  0  0  0  0  0  0  0  0  0
    7.6310   36.8630    7.5520 C   0  0  0  0  0  0  0  0  0  0  0  0
    7.1960   35.8930    6.7130 F   0  0  0  0  0  0  0  0  0  0  0  0
    8.3420   36.5180    8.7180 C   0  0  0  0  0  0  0  0  0  0  0  0
    8.8100   37.5050    9.6190 C   0  0  0  0  0  0  0  0  0  0  0  0
   11.3670   33.3917   16.7697 H   0  0  0  0  0  0  0  0  0  0  0  0
   11.2074   32.4683   15.2372 H   0  0  0  0  0  0  0  0  0  0  0  0
   12.0055   34.0776   15.2372 H   0  0  0  0  0  0  0  0  0  0  0  0
    9.0475   33.3994   15.5210 H   0  0  0  0  0  0  0  0  0  0  0  0
    9.6929   34.9510   16.1512 H   0  0  0  0  0  0  0  0  0  0  0  0
    6.8877   34.7462   12.2027 H   0  0  0  0  0  0  0  0  0  0  0  0
    7.2912   35.9092   10.8945 H   0  0  0  0  0  0  0  0  0  0  0  0
    8.0221   34.2683   10.8945 H   0  0  0  0  0  0  0  0  0  0  0  0
   10.7369   36.4334   12.2815 H   0  0  0  0  0  0  0  0  0  0  0  0
   10.2494   35.4740   10.8169 H   0  0  0  0  0  0  0  0  0  0  0  0
    8.5227   41.4147    9.3867 H   0  0  0  0  0  0  0  0  0  0  0  0
    8.5434   41.3937   11.2240 H   0  0  0  0  0  0  0  0  0  0  0  0
   10.9507   41.2064    8.2820 H   0  0  0  0  0  0  0  0  0  0  0  0
   13.1771   42.3372    8.3103 H   0  0  0  0  0  0  0  0  0  0  0  0
   13.9365   43.5675   10.3535 H   0  0  0  0  0  0  0  0  0  0  0  0
   13.5550   44.3177   12.6164 H   0  0  0  0  0  0  0  0  0  0  0  0
   12.1107   44.4403   14.6596 H   0  0  0  0  0  0  0  0  0  0  0  0
    9.8668   43.3223   14.6734 H   0  0  0  0  0  0  0  0  0  0  0  0
    9.0675   42.0817   12.6541 H   0  0  0  0  0  0  0  0  0  0  0  0
    7.6315   40.2735    7.9081 H   0  0  0  0  0  0  0  0  0  0  0  0
    6.8137   38.4855    6.3509 H   0  0  0  0  0  0  0  0  0  0  0  0
    8.5382   35.4573    8.9336 H   0  0  0  0  0  0  0  0  0  0  0  0
  1  2  1  0
  2  3  1  0
  3  4  1  0
  4  5  2  0
  4  6  1  0
  6  7  1  0
  6  8  1  0
  8  9  1  0
  9 10  2  0
 10 11  1  0
 11 12  2  0
 11 13  1  0
 10 14  1  0
 14 15  1  0
 15 16  1  0
 16 17  2  0
 17 18  1  0
 18 19  2  0
 19 20  1  0
 20 21  2  0
 21 22  1  0
 22 23  2  0
 23 24  1  0
 24 25  2  0
 14 26  1  0
 26 27  2  0
 27 28  1  0
 28 29  2  0
 29 30  1  0
 29 31  1  0
 31 32  2  0
 32  9  1  0
 25 16  1  0
 32 26  1  0
 25 20  1  0
  1 33  1  0
  1 34  1  0
  1 35  1  0
  2 36  1  0
  2 37  1  0
  7 38  1  0
  7 39  1  0
  7 40  1  0
  8 41  1  0
  8 42  1  0
 15 43  1  0
 15 44  1  0
 17 45  1  0
 18 46  1  0
 19 47  1  0
 21 48  1  0
 22 49  1  0
 23 50  1  0
 24 51  1  0
 27 52  1  0
 28 53  1  0
 31 54  1  0
M  CHG  1  13  -1
M  END
>  <meeko>  (71) 
{"free_energy": -6.0, "intermolecular_energy": -8.38, "internal_energy": -1.79, "cluster_size": 318, "cluster_id": 5, "rank_in_cluster": 147}

$$$$

     RDKit          3D

 54 57  0  0  0  0  0  0  0  0999 V2000
    8.8250   38.4700   18.9490 C   0  0  0  0  0  0  0  0  0  0  0  0
    8.8060   36.9400   18.9070 C   0  0  0  0  0  0  0  0  0  0  0  0
    8.1540   36.5130   17.7220 O   0  0  0  0  0  0  0  0  0  0  0  0
    8.8580   35.9060   16.7430 C   0  0  0  0  0  0  0  0  0  0  0  0
    8.5400   34.8230   16.2510 O   0  0  0  0  0  0  0  0  0  0  0  0
    9.9680   36.6820   16.3830 N   0  0  0  0  0  0  0  0  0  0  0  0
   11.3420   36.2690   16.6930 C   0  0  0  0  0  0  0  0  0  0  0  0
    9.8070   37.9710   15.6980 C   0  0  0  0  0  0  0  0  0  0  0  0
   10.4990   37.9960   14.3560 C   0  0  0  0  0  0  0  0  0  0  0  0
   10.1000   37.4180   13.1640 C   0  0  0  0  0  0  0  0  0  0  0  0
    8.8630   36.6370   12.8500 C   0  0  0  0  0  0  0  0  0  0  0  0
    8.5770   35.6530   13.5650 O   0  0  0  0  0  0  0  0  0  0  0  0
    8.1410   36.9520   11.8790 O   0  0  0  0  0  1  0  0  0  0  0  0
   11.0960   37.6500   12.1910 N   0  0  0  0  0  0  0  0  0  0  0  0
   11.1080   37.2370   10.7850 C   0  0  0  0  0  0  0  0  0  0  0  0
    9.9790   37.8280    9.9290 C   0  0  0  0  0  0  0  0  0  0  0  0
    9.8470   39.2300    9.7700 C   0  0  0  0  0  0  0  0  0  0  0  0
    8.8150   39.7750    8.9870 C   0  0  0  0  0  0  0  0  0  0  0  0
    7.8940   38.9280    8.3510 C   0  0  0  0  0  0  0  0  0  0  0  0
    8.0030   37.5320    8.4950 C   0  0  0  0  0  0  0  0  0  0  0  0
    7.0690   36.6960    7.8480 C   0  0  0  0  0  0  0  0  0  0  0  0
    7.1590   35.2990    7.9780 C   0  0  0  0  0  0  0  0  0  0  0  0
    8.1850   34.7340    8.7560 C   0  0  0  0  0  0  0  0  0  0  0  0
    9.1200   35.5630    9.4050 C   0  0  0  0  0  0  0  0  0  0  0  0
    9.0450   36.9720    9.2840 C   0  0  0  0  0  0  0  0  0  0  0  0
   12.1330   38.3770   12.7610 C   0  0  0  0  0  0  0  0  0  0  0  0
   13.3520   38.8470   12.2320 C   0  0  0  0  0  0  0  0  0  0  0  0
   14.2320   39.5800   13.0450 C   0  0  0  0  0  0  0  0  0  0  0  0
   13.8900   39.8420   14.3830 C   0  0  0  0  0  0  0  0  0  0  0  0
   14.7330   40.5510   15.1710 F   0  0  0  0  0  0  0  0  0  0  0  0
   12.6720   39.3650   14.9060 C   0  0  0  0  0  0  0  0  0  0  0  0
   11.7680   38.6180   14.1120 C   0  0  0  0  0  0  0  0  0  0  0  0
    8.8292   38.8080   19.9958 H   0  0  0  0  0  0  0  0  0  0  0  0
    9.7278   38.8396   18.4407 H   0  0  0  0  0  0  0  0  0  0  0  0
    7.9317   38.8619   18.4407 H   0  0  0  0  0  0  0  0  0  0  0  0
    9.8379   36.5590   18.9166 H   0  0  0  0  0  0  0  0  0  0  0  0
    8.2671   36.5533   19.7846 H   0  0  0  0  0  0  0  0  0  0  0  0
   11.4755   36.2289   17.7841 H   0  0  0  0  0  0  0  0  0  0  0  0
   11.5316   35.2742   16.2636 H   0  0  0  0  0  0  0  0  0  0  0  0
   12.0486   36.9944   16.2636 H   0  0  0  0  0  0  0  0  0  0  0  0
    8.7340   38.1597   15.5465 H   0  0  0  0  0  0  0  0  0  0  0  0
   10.2658   38.7471   16.3282 H   0  0  0  0  0  0  0  0  0  0  0  0
   12.0679   37.5466   10.3459 H   0  0  0  0  0  0  0  0  0  0  0  0
   10.9598   36.1470   10.7819 H   0  0  0  0  0  0  0  0  0  0  0  0
   10.5628   39.9015   10.2667 H   0  0  0  0  0  0  0  0  0  0  0  0
    8.7290   40.8656    8.8725 H   0  0  0  0  0  0  0  0  0  0  0  0
    7.0860   39.3557    7.7393 H   0  0  0  0  0  0  0  0  0  0  0  0
    6.2670   37.1389    7.2393 H   0  0  0  0  0  0  0  0  0  0  0  0
    6.4289   34.6498    7.4725 H   0  0  0  0  0  0  0  0  0  0  0  0
    8.2574   33.6411    8.8579 H   0  0  0  0  0  0  0  0  0  0  0  0
    9.9177   35.1111   10.0128 H   0  0  0  0  0  0  0  0  0  0  0  0
   13.6138   38.6400   11.1838 H   0  0  0  0  0  0  0  0  0  0  0  0
   15.1849   39.9475   12.6364 H   0  0  0  0  0  0  0  0  0  0  0  0
   12.4173   39.5776   15.9548 H   0  0  0  0  0  0  0  0  0  0  0  0
  1  2  1  0
  2  3  1  0
  3  4  1  0
  4  5  2  0
  4  6  1  0
  6  7  1  0
  6  8  1  0
  8  9  1  0
  9 10  2  0
 10 11  1  0
 11 12  2  0
 11 13  1  0
 10 14  1  0
 14 15  1  0
 15 16  1  0
 16 17  2  0
 17 18  1  0
 18 19  2  0
 19 20  1  0
 20 21  2  0
 21 22  1  0
 22 23  2  0
 23 24  1  0
 24 25  2  0
 14 26  1  0
 26 27  2  0
 27 28  1  0
 28 29  2  0
 29 30  1  0
 29 31  1  0
 31 32  2  0
 32  9  1  0
 25 16  1  0
 32 26  1  0
 25 20  1  0
  1 33  1  0
  1 34  1  0
  1 35  1  0
  2 36  1  0
  2 37  1  0
  7 38  1  0
  7 39  1  0
  7 40  1  0
  8 41  1  0
  8 42  1  0
 15 43  1  0
 15 44  1  0
 17 45  1  0
 18 46  1  0
 19 47  1  0
 21 48  1  0
 22 49  1  0
 23 50  1  0
 24 51  1  0
 27 52  1  0
 28 53  1  0
 31 54  1  0
M  CHG  1  13  -1
M  END
>  <meeko>  (72) 
{"free_energy": -6.6, "intermolecular_energy": -8.99, "internal_energy": -1.66, "cluster_size": 263, "cluster_id": 1, "rank_in_cluster": 145}

$$$$

     RDKit          3D

 54 57  0  0  0  0  0  0  0  0999 V2000
    8.1630   41.3550   10.8170 C   0  0  0  0  0  0  0  0  0  0  0  0
    9.0150   40.8400    9.6540 C   0  0  0  0  0  0  0  0  0  0  0  0
   10.1380   40.1450   10.1700 O   0  0  0  0  0  0  0  0  0  0  0  0
   11.3290   40.7720   10.2820 C   0  0  0  0  0  0  0  0  0  0  0  0
   11.4600   41.8970   10.7690 O   0  0  0  0  0  0  0  0  0  0  0  0
   12.3580   39.9650    9.7810 N   0  0  0  0  0  0  0  0  0  0  0  0
   13.6430   40.5220    9.3440 C   0  0  0  0  0  0  0  0  0  0  0  0
   12.1880   38.5130    9.6400 C   0  0  0  0  0  0  0  0  0  0  0  0
   11.2400   37.9450   10.6710 C   0  0  0  0  0  0  0  0  0  0  0  0
   11.2780   38.0760   12.0480 C   0  0  0  0  0  0  0  0  0  0  0  0
   12.2370   38.8370   12.9080 C   0  0  0  0  0  0  0  0  0  0  0  0
   11.8110   39.8090   13.5670 O   0  0  0  0  0  0  0  0  0  0  0  0
   13.4460   38.5180   12.9500 O   0  0  0  0  0  1  0  0  0  0  0  0
   10.2250   37.3200   12.6050 N   0  0  0  0  0  0  0  0  0  0  0  0
    9.8640   37.1640   14.0170 C   0  0  0  0  0  0  0  0  0  0  0  0
   10.4740   35.9370   14.7070 C   0  0  0  0  0  0  0  0  0  0  0  0
    9.9130   34.6480   14.5260 C   0  0  0  0  0  0  0  0  0  0  0  0
   10.4700   33.5220   15.1570 C   0  0  0  0  0  0  0  0  0  0  0  0
   11.5970   33.6640   15.9820 C   0  0  0  0  0  0  0  0  0  0  0  0
   12.1710   34.9340   16.1790 C   0  0  0  0  0  0  0  0  0  0  0  0
   13.3030   35.0580   17.0120 C   0  0  0  0  0  0  0  0  0  0  0  0
   13.8930   36.3170   17.2230 C   0  0  0  0  0  0  0  0  0  0  0  0
   13.3520   37.4560   16.6000 C   0  0  0  0  0  0  0  0  0  0  0  0
   12.2220   37.3390   15.7690 C   0  0  0  0  0  0  0  0  0  0  0  0
   11.6150   36.0780   15.5440 C   0  0  0  0  0  0  0  0  0  0  0  0
    9.5120   36.7050   11.5840 C   0  0  0  0  0  0  0  0  0  0  0  0
    8.3960   35.8440   11.6030 C   0  0  0  0  0  0  0  0  0  0  0  0
    7.8590   35.3650   10.3960 C   0  0  0  0  0  0  0  0  0  0  0  0
    8.4400   35.7490    9.1750 C   0  0  0  0  0  0  0  0  0  0  0  0
    7.9250   35.2940    8.0080 F   0  0  0  0  0  0  0  0  0  0  0  0
    9.5570   36.6070    9.1640 C   0  0  0  0  0  0  0  0  0  0  0  0
   10.1240   37.1000   10.3640 C   0  0  0  0  0  0  0  0  0  0  0  0
    8.6332   41.0708   11.7700 H   0  0  0  0  0  0  0  0  0  0  0  0
    8.0864   42.4508   10.7583 H   0  0  0  0  0  0  0  0  0  0  0  0
    7.1572   40.9135   10.7583 H   0  0  0  0  0  0  0  0  0  0  0  0
    8.4152   40.1594    9.0319 H   0  0  0  0  0  0  0  0  0  0  0  0
    9.3550   41.6880    9.0414 H   0  0  0  0  0  0  0  0  0  0  0  0
   14.2476   40.7841   10.2248 H   0  0  0  0  0  0  0  0  0  0  0  0
   14.1796   39.7757    8.7398 H   0  0  0  0  0  0  0  0  0  0  0  0
   13.4652   41.4238    8.7398 H   0  0  0  0  0  0  0  0  0  0  0  0
   11.7900   38.2989    8.6371 H   0  0  0  0  0  0  0  0  0  0  0  0
   13.1708   38.0424    9.7903 H   0  0  0  0  0  0  0  0  0  0  0  0
   10.1994   38.0618   14.5568 H   0  0  0  0  0  0  0  0  0  0  0  0
    8.7734   37.0228   14.0432 H   0  0  0  0  0  0  0  0  0  0  0  0
    9.0291   34.5270   13.8825 H   0  0  0  0  0  0  0  0  0  0  0  0
   10.0224   32.5289   15.0042 H   0  0  0  0  0  0  0  0  0  0  0  0
   12.0318   32.7820   16.4749 H   0  0  0  0  0  0  0  0  0  0  0  0
   13.7257   34.1664   17.4983 H   0  0  0  0  0  0  0  0  0  0  0  0
   14.7751   36.4107   17.8735 H   0  0  0  0  0  0  0  0  0  0  0  0
   13.8134   38.4412   16.7627 H   0  0  0  0  0  0  0  0  0  0  0  0
   11.8051   38.2365   15.2886 H   0  0  0  0  0  0  0  0  0  0  0  0
    7.9459   35.5473   12.5619 H   0  0  0  0  0  0  0  0  0  0  0  0
    6.9883   34.6929   10.4066 H   0  0  0  0  0  0  0  0  0  0  0  0
    9.9991   36.9009    8.2006 H   0  0  0  0  0  0  0  0  0  0  0  0
  1  2  1  0
  2  3  1  0
  3  4  1  0
  4  5  2  0
  4  6  1  0
  6  7  1  0
  6  8  1  0
  8  9  1  0
  9 10  2  0
 10 11  1  0
 11 12  2  0
 11 13  1  0
 10 14  1  0
 14 15  1  0
 15 16  1  0
 16 17  2  0
 17 18  1  0
 18 19  2  0
 19 20  1  0
 20 21  2  0
 21 22  1  0
 22 23  2  0
 23 24  1  0
 24 25  2  0
 14 26  1  0
 26 27  2  0
 27 28  1  0
 28 29  2  0
 29 30  1  0
 29 31  1  0
 31 32  2  0
 32  9  1  0
 25 16  1  0
 32 26  1  0
 25 20  1  0
  1 33  1  0
  1 34  1  0
  1 35  1  0
  2 36  1  0
  2 37  1  0
  7 38  1  0
  7 39  1  0
  7 40  1  0
  8 41  1  0
  8 42  1  0
 15 43  1  0
 15 44  1  0
 17 45  1  0
 18 46  1  0
 19 47  1  0
 21 48  1  0
 22 49  1  0
 23 50  1  0
 24 51  1  0
 27 52  1  0
 28 53  1  0
 31 54  1  0
M  CHG  1  13  -1
M  END
>  <meeko>  (73) 
{"free_energy": -5.77, "intermolecular_energy": -8.15, "internal_energy": -1.8, "cluster_size": 130, "cluster_id": 32, "rank_in_cluster": 35}

$$$$

     RDKit          3D

 54 57  0  0  0  0  0  0  0  0999 V2000
   16.0160   33.9530    9.8430 C   0  0  0  0  0  0  0  0  0  0  0  0
   14.8060   34.8910    9.8510 C   0  0  0  0  0  0  0  0  0  0  0  0
   15.2070   36.1730    9.3940 O   0  0  0  0  0  0  0  0  0  0  0  0
   14.8270   37.2800   10.0680 C   0  0  0  0  0  0  0  0  0  0  0  0
   13.7630   37.8670    9.8610 O   0  0  0  0  0  0  0  0  0  0  0  0
   15.7980   37.6380   11.0120 N   0  0  0  0  0  0  0  0  0  0  0  0
   16.5100   36.6400   11.8160 C   0  0  0  0  0  0  0  0  0  0  0  0
   16.1320   39.0470   11.2640 C   0  0  0  0  0  0  0  0  0  0  0  0
   14.9090   39.8770   11.5790 C   0  0  0  0  0  0  0  0  0  0  0  0
   14.3060   40.8570   10.8100 C   0  0  0  0  0  0  0  0  0  0  0  0
   14.6610   41.3510    9.4440 C   0  0  0  0  0  0  0  0  0  0  0  0
   15.1340   40.5420    8.6170 O   0  0  0  0  0  0  0  0  0  0  0  0
   14.5060   42.5540    9.1420 O   0  0  0  0  0  1  0  0  0  0  0  0
   13.2280   41.4050   11.5390 N   0  0  0  0  0  0  0  0  0  0  0  0
   12.2960   42.4600   11.1290 C   0  0  0  0  0  0  0  0  0  0  0  0
   10.8120   42.0860   11.2380 C   0  0  0  0  0  0  0  0  0  0  0  0
    9.9120   42.8940   11.9780 C   0  0  0  0  0  0  0  0  0  0  0  0
    8.5520   42.5550   12.0810 C   0  0  0  0  0  0  0  0  0  0  0  0
    8.0660   41.4000   11.4470 C   0  0  0  0  0  0  0  0  0  0  0  0
    8.9400   40.5810   10.7080 C   0  0  0  0  0  0  0  0  0  0  0  0
    8.4340   39.4240   10.0780 C   0  0  0  0  0  0  0  0  0  0  0  0
    9.2890   38.5910    9.3350 C   0  0  0  0  0  0  0  0  0  0  0  0
   10.6530   38.9130    9.2200 C   0  0  0  0  0  0  0  0  0  0  0  0
   11.1640   40.0650    9.8470 C   0  0  0  0  0  0  0  0  0  0  0  0
   10.3170   40.9160   10.5990 C   0  0  0  0  0  0  0  0  0  0  0  0
   13.1430   40.7760   12.7740 C   0  0  0  0  0  0  0  0  0  0  0  0
   12.2670   40.9600   13.8630 C   0  0  0  0  0  0  0  0  0  0  0  0
   12.4020   40.1640   15.0130 C   0  0  0  0  0  0  0  0  0  0  0  0
   13.4110   39.1870   15.0690 C   0  0  0  0  0  0  0  0  0  0  0  0
   13.5440   38.4140   16.1730 F   0  0  0  0  0  0  0  0  0  0  0  0
   14.2850   39.0120   13.9790 C   0  0  0  0  0  0  0  0  0  0  0  0
   14.1780   39.8040   12.8090 C   0  0  0  0  0  0  0  0  0  0  0  0
   16.3101   33.7250   10.8782 H   0  0  0  0  0  0  0  0  0  0  0  0
   15.7534   33.0202    9.3225 H   0  0  0  0  0  0  0  0  0  0  0  0
   16.8539   34.4399    9.3225 H   0  0  0  0  0  0  0  0  0  0  0  0
   14.0259   34.4909    9.1867 H   0  0  0  0  0  0  0  0  0  0  0  0
   14.4069   34.9709   10.8729 H   0  0  0  0  0  0  0  0  0  0  0  0
   16.3578   36.8534   12.8843 H   0  0  0  0  0  0  0  0  0  0  0  0
   16.1221   35.6373   11.5835 H   0  0  0  0  0  0  0  0  0  0  0  0
   17.5844   36.6805   11.5835 H   0  0  0  0  0  0  0  0  0  0  0  0
   16.8249   39.0996   12.1167 H   0  0  0  0  0  0  0  0  0  0  0  0
   16.5895   39.4538   10.3501 H   0  0  0  0  0  0  0  0  0  0  0  0
   12.4746   43.3401   11.7642 H   0  0  0  0  0  0  0  0  0  0  0  0
   12.4904   42.6475   10.0627 H   0  0  0  0  0  0  0  0  0  0  0  0
   10.2839   43.7999   12.4791 H   0  0  0  0  0  0  0  0  0  0  0  0
    7.8681   43.1945   12.6583 H   0  0  0  0  0  0  0  0  0  0  0  0
    7.0014   41.1352   11.5280 H   0  0  0  0  0  0  0  0  0  0  0  0
    7.3669   39.1730   10.1685 H   0  0  0  0  0  0  0  0  0  0  0  0
    8.8919   37.6898    8.8450 H   0  0  0  0  0  0  0  0  0  0  0  0
   11.3227   38.2626    8.6383 H   0  0  0  0  0  0  0  0  0  0  0  0
   12.2328   40.3072    9.7520 H   0  0  0  0  0  0  0  0  0  0  0  0
   11.4788   41.7257   13.8126 H   0  0  0  0  0  0  0  0  0  0  0  0
   11.7212   40.3048   15.8655 H   0  0  0  0  0  0  0  0  0  0  0  0
   15.0690   38.2426   14.0371 H   0  0  0  0  0  0  0  0  0  0  0  0
  1  2  1  0
  2  3  1  0
  3  4  1  0
  4  5  2  0
  4  6  1  0
  6  7  1  0
  6  8  1  0
  8  9  1  0
  9 10  2  0
 10 11  1  0
 11 12  2  0
 11 13  1  0
 10 14  1  0
 14 15  1  0
 15 16  1  0
 16 17  2  0
 17 18  1  0
 18 19  2  0
 19 20  1  0
 20 21  2  0
 21 22  1  0
 22 23  2  0
 23 24  1  0
 24 25  2  0
 14 26  1  0
 26 27  2  0
 27 28  1  0
 28 29  2  0
 29 30  1  0
 29 31  1  0
 31 32  2  0
 32  9  1  0
 25 16  1  0
 32 26  1  0
 25 20  1  0
  1 33  1  0
  1 34  1  0
  1 35  1  0
  2 36  1  0
  2 37  1  0
  7 38  1  0
  7 39  1  0
  7 40  1  0
  8 41  1  0
  8 42  1  0
 15 43  1  0
 15 44  1  0
 17 45  1  0
 18 46  1  0
 19 47  1  0
 21 48  1  0
 22 49  1  0
 23 50  1  0
 24 51  1  0
 27 52  1  0
 28 53  1  0
 31 54  1  0
M  CHG  1  13  -1
M  END
>  <meeko>  (74) 
{"free_energy": -4.33, "intermolecular_energy": -6.71, "internal_energy": -2.14, "cluster_size": 3, "cluster_id": 251, "rank_in_cluster": 2}

$$$$

     RDKit          3D

 54 57  0  0  0  0  0  0  0  0999 V2000
   15.5530   36.0460   18.8810 C   0  0  0  0  0  0  0  0  0  0  0  0
   14.9200   35.3610   17.6670 C   0  0  0  0  0  0  0  0  0  0  0  0
   13.6640   35.9620   17.3950 O   0  0  0  0  0  0  0  0  0  0  0  0
   13.6020   37.1050   16.6780 C   0  0  0  0  0  0  0  0  0  0  0  0
   14.5000   37.4800   15.9220 O   0  0  0  0  0  0  0  0  0  0  0  0
   12.3920   37.7700   16.9160 N   0  0  0  0  0  0  0  0  0  0  0  0
   12.3430   39.1130   17.5030 C   0  0  0  0  0  0  0  0  0  0  0  0
   11.1020   37.1360   16.6140 C   0  0  0  0  0  0  0  0  0  0  0  0
   10.7910   37.1470   15.1360 C   0  0  0  0  0  0  0  0  0  0  0  0
    9.8020   36.4610   14.4530 C   0  0  0  0  0  0  0  0  0  0  0  0
    8.7410   35.5450   14.9760 C   0  0  0  0  0  0  0  0  0  0  0  0
    8.4020   35.6430   16.1750 O   0  0  0  0  0  0  0  0  0  0  0  0
    8.2180   34.6860   14.2330 O   0  0  0  0  0  1  0  0  0  0  0  0
    9.9330   36.7290   13.0730 N   0  0  0  0  0  0  0  0  0  0  0  0
    9.1080   36.2350   11.9680 C   0  0  0  0  0  0  0  0  0  0  0  0
    8.7410   37.2900   10.9150 C   0  0  0  0  0  0  0  0  0  0  0  0
    8.8070   38.6720   11.2200 C   0  0  0  0  0  0  0  0  0  0  0  0
    8.4710   39.6420   10.2590 C   0  0  0  0  0  0  0  0  0  0  0  0
    8.0610   39.2470    8.9760 C   0  0  0  0  0  0  0  0  0  0  0  0
    7.9850   37.8790    8.6500 C   0  0  0  0  0  0  0  0  0  0  0  0
    7.5710   37.5000    7.3560 C   0  0  0  0  0  0  0  0  0  0  0  0
    7.4880   36.1400    7.0080 C   0  0  0  0  0  0  0  0  0  0  0  0
    7.8200   35.1550    7.9550 C   0  0  0  0  0  0  0  0  0  0  0  0
    8.2340   35.5270    9.2480 C   0  0  0  0  0  0  0  0  0  0  0  0
    8.3240   36.8920    9.6160 C   0  0  0  0  0  0  0  0  0  0  0  0
   11.0070   37.5870   12.8740 C   0  0  0  0  0  0  0  0  0  0  0  0
   11.5610   38.1420   11.7020 C   0  0  0  0  0  0  0  0  0  0  0  0
   12.6660   39.0050   11.7900 C   0  0  0  0  0  0  0  0  0  0  0  0
   13.2110   39.3130   13.0480 C   0  0  0  0  0  0  0  0  0  0  0  0
   14.2730   40.1480   13.1400 F   0  0  0  0  0  0  0  0  0  0  0  0
   12.6540   38.7520   14.2140 C   0  0  0  0  0  0  0  0  0  0  0  0
   11.5450   37.8730   14.1570 C   0  0  0  0  0  0  0  0  0  0  0  0
   15.1465   35.6061   19.8036 H   0  0  0  0  0  0  0  0  0  0  0  0
   16.6433   35.9025   18.8558 H   0  0  0  0  0  0  0  0  0  0  0  0
   15.3241   37.1216   18.8558 H   0  0  0  0  0  0  0  0  0  0  0  0
   15.5796   35.4758   16.7942 H   0  0  0  0  0  0  0  0  0  0  0  0
   14.7797   34.2906   17.8779 H   0  0  0  0  0  0  0  0  0  0  0  0
   12.3459   39.0339   18.6002 H   0  0  0  0  0  0  0  0  0  0  0  0
   13.2207   39.6890   17.1746 H   0  0  0  0  0  0  0  0  0  0  0  0
   11.4256   39.6235   17.1746 H   0  0  0  0  0  0  0  0  0  0  0  0
   11.1303   36.0929   16.9620 H   0  0  0  0  0  0  0  0  0  0  0  0
   10.3163   37.7093   17.1279 H   0  0  0  0  0  0  0  0  0  0  0  0
    9.6590   35.4268   11.4647 H   0  0  0  0  0  0  0  0  0  0  0  0
    8.1598   35.9019   12.4152 H   0  0  0  0  0  0  0  0  0  0  0  0
    9.1258   38.9909   12.2233 H   0  0  0  0  0  0  0  0  0  0  0  0
    8.5295   40.7107   10.5128 H   0  0  0  0  0  0  0  0  0  0  0  0
    7.7989   40.0065    8.2247 H   0  0  0  0  0  0  0  0  0  0  0  0
    7.3120   38.2715    6.6159 H   0  0  0  0  0  0  0  0  0  0  0  0
    7.1644   35.8477    5.9981 H   0  0  0  0  0  0  0  0  0  0  0  0
    7.7560   34.0907    7.6847 H   0  0  0  0  0  0  0  0  0  0  0  0
    8.4907   34.7484    9.9814 H   0  0  0  0  0  0  0  0  0  0  0  0
   11.1285   37.8995   10.7201 H   0  0  0  0  0  0  0  0  0  0  0  0
   13.1028   39.4378   10.8779 H   0  0  0  0  0  0  0  0  0  0  0  0
   13.0908   39.0026   15.1920 H   0  0  0  0  0  0  0  0  0  0  0  0
  1  2  1  0
  2  3  1  0
  3  4  1  0
  4  5  2  0
  4  6  1  0
  6  7  1  0
  6  8  1  0
  8  9  1  0
  9 10  2  0
 10 11  1  0
 11 12  2  0
 11 13  1  0
 10 14  1  0
 14 15  1  0
 15 16  1  0
 16 17  2  0
 17 18  1  0
 18 19  2  0
 19 20  1  0
 20 21  2  0
 21 22  1  0
 22 23  2  0
 23 24  1  0
 24 25  2  0
 14 26  1  0
 26 27  2  0
 27 28  1  0
 28 29  2  0
 29 30  1  0
 29 31  1  0
 31 32  2  0
 32  9  1  0
 25 16  1  0
 32 26  1  0
 25 20  1  0
  1 33  1  0
  1 34  1  0
  1 35  1  0
  2 36  1  0
  2 37  1  0
  7 38  1  0
  7 39  1  0
  7 40  1  0
  8 41  1  0
  8 42  1  0
 15 43  1  0
 15 44  1  0
 17 45  1  0
 18 46  1  0
 19 47  1  0
 21 48  1  0
 22 49  1  0
 23 50  1  0
 24 51  1  0
 27 52  1  0
 28 53  1  0
 31 54  1  0
M  CHG  1  13  -1
M  END
>  <meeko>  (75) 
{"free_energy": -7.39, "intermolecular_energy": -9.78, "internal_energy": -1.02, "cluster_size": 283, "cluster_id": 7, "rank_in_cluster": 5}

$$$$

     RDKit          3D

 54 57  0  0  0  0  0  0  0  0999 V2000
    7.5370   45.2990   14.1040 C   0  0  0  0  0  0  0  0  0  0  0  0
    8.8360   45.7630   14.7670 C   0  0  0  0  0  0  0  0  0  0  0  0
    9.8790   44.8620   14.4330 O   0  0  0  0  0  0  0  0  0  0  0  0
   10.3450   44.8060   13.1670 C   0  0  0  0  0  0  0  0  0  0  0  0
   10.7130   45.7990   12.5360 O   0  0  0  0  0  0  0  0  0  0  0  0
   10.3510   43.4850   12.7030 N   0  0  0  0  0  0  0  0  0  0  0  0
   11.5490   42.8660   12.1250 C   0  0  0  0  0  0  0  0  0  0  0  0
    9.1380   42.6560   12.7470 C   0  0  0  0  0  0  0  0  0  0  0  0
    9.4530   41.1900   12.9300 C   0  0  0  0  0  0  0  0  0  0  0  0
    9.9750   40.5480   14.0390 C   0  0  0  0  0  0  0  0  0  0  0  0
   10.3430   41.1030   15.3780 C   0  0  0  0  0  0  0  0  0  0  0  0
    9.4400   41.5770   16.1010 O   0  0  0  0  0  0  0  0  0  0  0  0
   11.5340   41.1110   15.7580 O   0  0  0  0  0  1  0  0  0  0  0  0
   10.1600   39.1830   13.7280 N   0  0  0  0  0  0  0  0  0  0  0  0
   10.6760   38.1150   14.5890 C   0  0  0  0  0  0  0  0  0  0  0  0
    9.7140   37.6560   15.6930 C   0  0  0  0  0  0  0  0  0  0  0  0
    9.3150   38.5440   16.7230 C   0  0  0  0  0  0  0  0  0  0  0  0
    8.4350   38.1280   17.7370 C   0  0  0  0  0  0  0  0  0  0  0  0
    7.9390   36.8140   17.7410 C   0  0  0  0  0  0  0  0  0  0  0  0
    8.3220   35.9130   16.7290 C   0  0  0  0  0  0  0  0  0  0  0  0
    7.8140   34.5970   16.7490 C   0  0  0  0  0  0  0  0  0  0  0  0
    8.1830   33.6800   15.7490 C   0  0  0  0  0  0  0  0  0  0  0  0
    9.0620   34.0770   14.7260 C   0  0  0  0  0  0  0  0  0  0  0  0
    9.5730   35.3890   14.7010 C   0  0  0  0  0  0  0  0  0  0  0  0
    9.2110   36.3260   15.7000 C   0  0  0  0  0  0  0  0  0  0  0  0
    9.7560   38.9530   12.4190 C   0  0  0  0  0  0  0  0  0  0  0  0
    9.7480   37.7850   11.6300 C   0  0  0  0  0  0  0  0  0  0  0  0
    9.2670   37.8340   10.3110 C   0  0  0  0  0  0  0  0  0  0  0  0
    8.7950   39.0490    9.7860 C   0  0  0  0  0  0  0  0  0  0  0  0
    8.3260   39.1020    8.5160 F   0  0  0  0  0  0  0  0  0  0  0  0
    8.8090   40.2130   10.5790 C   0  0  0  0  0  0  0  0  0  0  0  0
    9.2940   40.1960   11.9100 C   0  0  0  0  0  0  0  0  0  0  0  0
    6.8027   45.0367   14.8799 H   0  0  0  0  0  0  0  0  0  0  0  0
    7.1352   46.1092   13.4778 H   0  0  0  0  0  0  0  0  0  0  0  0
    7.7394   44.4176   13.4778 H   0  0  0  0  0  0  0  0  0  0  0  0
    9.0920   46.7710   14.4087 H   0  0  0  0  0  0  0  0  0  0  0  0
    8.7048   45.7873   15.8589 H   0  0  0  0  0  0  0  0  0  0  0  0
   12.2114   42.5237   12.9338 H   0  0  0  0  0  0  0  0  0  0  0  0
   11.2546   42.0071   11.5039 H   0  0  0  0  0  0  0  0  0  0  0  0
   12.0792   43.6030   11.5039 H   0  0  0  0  0  0  0  0  0  0  0  0
    8.5108   42.9907   13.5864 H   0  0  0  0  0  0  0  0  0  0  0  0
    8.6162   42.7710   11.7855 H   0  0  0  0  0  0  0  0  0  0  0  0
   10.9083   37.2467   13.9549 H   0  0  0  0  0  0  0  0  0  0  0  0
   11.5582   38.5285   15.0997 H   0  0  0  0  0  0  0  0  0  0  0  0
    9.6999   39.5745   16.7290 H   0  0  0  0  0  0  0  0  0  0  0  0
    8.1348   38.8316   18.5275 H   0  0  0  0  0  0  0  0  0  0  0  0
    7.2510   36.4886   18.5352 H   0  0  0  0  0  0  0  0  0  0  0  0
    7.1266   34.2871   17.5499 H   0  0  0  0  0  0  0  0  0  0  0  0
    7.7850   32.6547   15.7670 H   0  0  0  0  0  0  0  0  0  0  0  0
    9.3514   33.3607   13.9429 H   0  0  0  0  0  0  0  0  0  0  0  0
   10.2608   35.6896   13.8969 H   0  0  0  0  0  0  0  0  0  0  0  0
   10.1179   36.8365   12.0465 H   0  0  0  0  0  0  0  0  0  0  0  0
    9.2599   36.9249    9.6917 H   0  0  0  0  0  0  0  0  0  0  0  0
    8.4349   41.1566   10.1552 H   0  0  0  0  0  0  0  0  0  0  0  0
  1  2  1  0
  2  3  1  0
  3  4  1  0
  4  5  2  0
  4  6  1  0
  6  7  1  0
  6  8  1  0
  8  9  1  0
  9 10  2  0
 10 11  1  0
 11 12  2  0
 11 13  1  0
 10 14  1  0
 14 15  1  0
 15 16  1  0
 16 17  2  0
 17 18  1  0
 18 19  2  0
 19 20  1  0
 20 21  2  0
 21 22  1  0
 22 23  2  0
 23 24  1  0
 24 25  2  0
 14 26  1  0
 26 27  2  0
 27 28  1  0
 28 29  2  0
 29 30  1  0
 29 31  1  0
 31 32  2  0
 32  9  1  0
 25 16  1  0
 32 26  1  0
 25 20  1  0
  1 33  1  0
  1 34  1  0
  1 35  1  0
  2 36  1  0
  2 37  1  0
  7 38  1  0
  7 39  1  0
  7 40  1  0
  8 41  1  0
  8 42  1  0
 15 43  1  0
 15 44  1  0
 17 45  1  0
 18 46  1  0
 19 47  1  0
 21 48  1  0
 22 49  1  0
 23 50  1  0
 24 51  1  0
 27 52  1  0
 28 53  1  0
 31 54  1  0
M  CHG  1  13  -1
M  END
>  <meeko>  (76) 
{"free_energy": -5.04, "intermolecular_energy": -7.42, "internal_energy": -1.75, "cluster_size": 12, "cluster_id": 105, "rank_in_cluster": 6}

$$$$

     RDKit          3D

 54 57  0  0  0  0  0  0  0  0999 V2000
    6.8350   35.0960    8.0900 C   0  0  0  0  0  0  0  0  0  0  0  0
    7.3270   36.1010    7.0450 C   0  0  0  0  0  0  0  0  0  0  0  0
    7.5700   37.3480    7.6740 O   0  0  0  0  0  0  0  0  0  0  0  0
    7.8530   37.3970    8.9940 C   0  0  0  0  0  0  0  0  0  0  0  0
    7.0250   37.7040    9.8530 O   0  0  0  0  0  0  0  0  0  0  0  0
    9.1900   37.0470    9.2230 N   0  0  0  0  0  0  0  0  0  0  0  0
    9.6000   35.6630    9.4840 C   0  0  0  0  0  0  0  0  0  0  0  0
   10.2510   38.0630    9.2400 C   0  0  0  0  0  0  0  0  0  0  0  0
   10.4490   38.6580   10.6140 C   0  0  0  0  0  0  0  0  0  0  0  0
   11.1300   39.8100   10.9690 C   0  0  0  0  0  0  0  0  0  0  0  0
   11.8300   40.8090   10.1040 C   0  0  0  0  0  0  0  0  0  0  0  0
   11.7550   42.0200   10.4030 O   0  0  0  0  0  0  0  0  0  0  0  0
   12.4620   40.4410    9.0900 O   0  0  0  0  0  1  0  0  0  0  0  0
   11.1060   39.9360   12.3750 N   0  0  0  0  0  0  0  0  0  0  0  0
   11.6850   40.9970   13.2030 C   0  0  0  0  0  0  0  0  0  0  0  0
   10.6620   41.8660   13.9470 C   0  0  0  0  0  0  0  0  0  0  0  0
   10.9170   42.3210   15.2650 C   0  0  0  0  0  0  0  0  0  0  0  0
    9.9830   43.1170   15.9490 C   0  0  0  0  0  0  0  0  0  0  0  0
    8.7740   43.4710   15.3290 C   0  0  0  0  0  0  0  0  0  0  0  0
    8.4960   43.0300   14.0220 C   0  0  0  0  0  0  0  0  0  0  0  0
    7.2770   43.3950   13.4140 C   0  0  0  0  0  0  0  0  0  0  0  0
    6.9780   42.9660   12.1090 C   0  0  0  0  0  0  0  0  0  0  0  0
    7.9010   42.1700   11.4070 C   0  0  0  0  0  0  0  0  0  0  0  0
    9.1200   41.8010   12.0080 C   0  0  0  0  0  0  0  0  0  0  0  0
    9.4370   42.2250   13.3220 C   0  0  0  0  0  0  0  0  0  0  0  0
   10.4110   38.8640   12.9190 C   0  0  0  0  0  0  0  0  0  0  0  0
   10.1170   38.5150   14.2530 C   0  0  0  0  0  0  0  0  0  0  0  0
    9.3720   37.3550   14.5260 C   0  0  0  0  0  0  0  0  0  0  0  0
    8.9220   36.5510   13.4650 C   0  0  0  0  0  0  0  0  0  0  0  0
    8.2000   35.4340   13.7220 F   0  0  0  0  0  0  0  0  0  0  0  0
    9.2220   36.9050   12.1360 C   0  0  0  0  0  0  0  0  0  0  0  0
    9.9770   38.0630   11.8300 C   0  0  0  0  0  0  0  0  0  0  0  0
    7.0284   35.4911    9.0982 H   0  0  0  0  0  0  0  0  0  0  0  0
    5.7549   34.9323    7.9613 H   0  0  0  0  0  0  0  0  0  0  0  0
    7.3682   34.1425    7.9613 H   0  0  0  0  0  0  0  0  0  0  0  0
    8.2575   35.7316    6.5891 H   0  0  0  0  0  0  0  0  0  0  0  0
    6.5629   36.2246    6.2634 H   0  0  0  0  0  0  0  0  0  0  0  0
    9.6501   35.4940   10.5698 H   0  0  0  0  0  0  0  0  0  0  0  0
    8.8675   34.9735    9.0390 H   0  0  0  0  0  0  0  0  0  0  0  0
   10.5898   35.4837    9.0390 H   0  0  0  0  0  0  0  0  0  0  0  0
   11.1933   37.5966    8.9168 H   0  0  0  0  0  0  0  0  0  0  0  0
    9.9523   38.8747    8.5603 H   0  0  0  0  0  0  0  0  0  0  0  0
   12.3422   40.5276   13.9498 H   0  0  0  0  0  0  0  0  0  0  0  0
   12.2188   41.6691   12.5150 H   0  0  0  0  0  0  0  0  0  0  0  0
   11.8604   42.0467   15.7597 H   0  0  0  0  0  0  0  0  0  0  0  0
   10.1990   43.4630   16.9706 H   0  0  0  0  0  0  0  0  0  0  0  0
    8.0432   44.0939   15.8657 H   0  0  0  0  0  0  0  0  0  0  0  0
    6.5565   44.0185   13.9636 H   0  0  0  0  0  0  0  0  0  0  0  0
    6.0256   43.2518   11.6386 H   0  0  0  0  0  0  0  0  0  0  0  0
    7.6699   41.8346   10.3852 H   0  0  0  0  0  0  0  0  0  0  0  0
    9.8340   41.1766   11.4509 H   0  0  0  0  0  0  0  0  0  0  0  0
   10.4702   39.1498   15.0790 H   0  0  0  0  0  0  0  0  0  0  0  0
    9.1422   37.0777   15.5654 H   0  0  0  0  0  0  0  0  0  0  0  0
    8.8613   36.2669   11.3158 H   0  0  0  0  0  0  0  0  0  0  0  0
  1  2  1  0
  2  3  1  0
  3  4  1  0
  4  5  2  0
  4  6  1  0
  6  7  1  0
  6  8  1  0
  8  9  1  0
  9 10  2  0
 10 11  1  0
 11 12  2  0
 11 13  1  0
 10 14  1  0
 14 15  1  0
 15 16  1  0
 16 17  2  0
 17 18  1  0
 18 19  2  0
 19 20  1  0
 20 21  2  0
 21 22  1  0
 22 23  2  0
 23 24  1  0
 24 25  2  0
 14 26  1  0
 26 27  2  0
 27 28  1  0
 28 29  2  0
 29 30  1  0
 29 31  1  0
 31 32  2  0
 32  9  1  0
 25 16  1  0
 32 26  1  0
 25 20  1  0
  1 33  1  0
  1 34  1  0
  1 35  1  0
  2 36  1  0
  2 37  1  0
  7 38  1  0
  7 39  1  0
  7 40  1  0
  8 41  1  0
  8 42  1  0
 15 43  1  0
 15 44  1  0
 17 45  1  0
 18 46  1  0
 19 47  1  0
 21 48  1  0
 22 49  1  0
 23 50  1  0
 24 51  1  0
 27 52  1  0
 28 53  1  0
 31 54  1  0
M  CHG  1  13  -1
M  END
>  <meeko>  (77) 
{"free_energy": -5.1, "intermolecular_energy": -7.49, "internal_energy": -1.63, "cluster_size": 86, "cluster_id": 25, "rank_in_cluster": 56}

$$$$

     RDKit          3D

 54 57  0  0  0  0  0  0  0  0999 V2000
    5.6810   38.6260    5.3810 C   0  0  0  0  0  0  0  0  0  0  0  0
    6.7830   38.4730    6.4330 C   0  0  0  0  0  0  0  0  0  0  0  0
    6.2710   37.7580    7.5460 O   0  0  0  0  0  0  0  0  0  0  0  0
    7.1110   37.0900    8.3650 C   0  0  0  0  0  0  0  0  0  0  0  0
    7.0840   35.8670    8.5120 O   0  0  0  0  0  0  0  0  0  0  0  0
    7.9940   37.9770    8.9940 N   0  0  0  0  0  0  0  0  0  0  0  0
    9.2330   38.4320    8.3520 C   0  0  0  0  0  0  0  0  0  0  0  0
    7.7340   38.4780   10.3500 C   0  0  0  0  0  0  0  0  0  0  0  0
    8.9430   39.1550   10.9520 C   0  0  0  0  0  0  0  0  0  0  0  0
   10.1930   38.6240   11.2140 C   0  0  0  0  0  0  0  0  0  0  0  0
   10.7200   37.2480   10.9490 C   0  0  0  0  0  0  0  0  0  0  0  0
   10.5200   36.3550   11.8000 O   0  0  0  0  0  0  0  0  0  0  0  0
   11.3630   37.0030    9.9050 O   0  0  0  0  0  1  0  0  0  0  0  0
   10.9840   39.6110   11.8390 N   0  0  0  0  0  0  0  0  0  0  0  0
   12.3750   39.5120   12.2890 C   0  0  0  0  0  0  0  0  0  0  0  0
   13.3880   39.1770   11.1870 C   0  0  0  0  0  0  0  0  0  0  0  0
   14.2950   38.0970   11.3370 C   0  0  0  0  0  0  0  0  0  0  0  0
   15.2240   37.7870   10.3300 C   0  0  0  0  0  0  0  0  0  0  0  0
   15.2660   38.5520    9.1530 C   0  0  0  0  0  0  0  0  0  0  0  0
   14.3780   39.6300    8.9810 C   0  0  0  0  0  0  0  0  0  0  0  0
   14.4350   40.3880    7.7930 C   0  0  0  0  0  0  0  0  0  0  0  0
   13.5580   41.4700    7.5990 C   0  0  0  0  0  0  0  0  0  0  0  0
   12.6200   41.7960    8.5950 C   0  0  0  0  0  0  0  0  0  0  0  0
   12.5580   41.0440    9.7830 C   0  0  0  0  0  0  0  0  0  0  0  0
   13.4340   39.9500    9.9950 C   0  0  0  0  0  0  0  0  0  0  0  0
   10.2390   40.7750   11.9770 C   0  0  0  0  0  0  0  0  0  0  0  0
   10.5520   42.0300   12.5400 C   0  0  0  0  0  0  0  0  0  0  0  0
    9.5930   43.0560   12.5400 C   0  0  0  0  0  0  0  0  0  0  0  0
    8.3260   42.8260   11.9760 C   0  0  0  0  0  0  0  0  0  0  0  0
    7.3980   43.8120   11.9690 F   0  0  0  0  0  0  0  0  0  0  0  0
    8.0200   41.5690   11.4190 C   0  0  0  0  0  0  0  0  0  0  0  0
    8.9630   40.5130   11.4110 C   0  0  0  0  0  0  0  0  0  0  0  0
    4.7113   38.7606    5.8826 H   0  0  0  0  0  0  0  0  0  0  0  0
    5.8935   39.5033    4.7523 H   0  0  0  0  0  0  0  0  0  0  0  0
    5.6465   37.7240    4.7523 H   0  0  0  0  0  0  0  0  0  0  0  0
    7.6306   37.9215    6.0001 H   0  0  0  0  0  0  0  0  0  0  0  0
    7.1235   39.4672    6.7580 H   0  0  0  0  0  0  0  0  0  0  0  0
    9.9683   38.7020    9.1242 H   0  0  0  0  0  0  0  0  0  0  0  0
    9.6392   37.6244    7.7253 H   0  0  0  0  0  0  0  0  0  0  0  0
    9.0200   39.3106    7.7253 H   0  0  0  0  0  0  0  0  0  0  0  0
    6.9074   39.2025   10.3071 H   0  0  0  0  0  0  0  0  0  0  0  0
    7.4798   37.6162   10.9845 H   0  0  0  0  0  0  0  0  0  0  0  0
   12.6600   40.4772   12.7332 H   0  0  0  0  0  0  0  0  0  0  0  0
   12.4093   38.6766   13.0038 H   0  0  0  0  0  0  0  0  0  0  0  0
   14.2706   37.4929   12.2559 H   0  0  0  0  0  0  0  0  0  0  0  0
   15.9188   36.9447   10.4634 H   0  0  0  0  0  0  0  0  0  0  0  0
   15.9937   38.3083    8.3649 H   0  0  0  0  0  0  0  0  0  0  0  0
   15.1688   40.1317    7.0147 H   0  0  0  0  0  0  0  0  0  0  0  0
   13.6054   42.0594    6.6714 H   0  0  0  0  0  0  0  0  0  0  0  0
   11.9326   42.6415    8.4449 H   0  0  0  0  0  0  0  0  0  0  0  0
   11.8213   41.3083   10.5559 H   0  0  0  0  0  0  0  0  0  0  0  0
   11.5456   42.2047   12.9783 H   0  0  0  0  0  0  0  0  0  0  0  0
    9.8323   44.0356   12.9795 H   0  0  0  0  0  0  0  0  0  0  0  0
    7.0250   41.4039   10.9799 H   0  0  0  0  0  0  0  0  0  0  0  0
  1  2  1  0
  2  3  1  0
  3  4  1  0
  4  5  2  0
  4  6  1  0
  6  7  1  0
  6  8  1  0
  8  9  1  0
  9 10  2  0
 10 11  1  0
 11 12  2  0
 11 13  1  0
 10 14  1  0
 14 15  1  0
 15 16  1  0
 16 17  2  0
 17 18  1  0
 18 19  2  0
 19 20  1  0
 20 21  2  0
 21 22  1  0
 22 23  2  0
 23 24  1  0
 24 25  2  0
 14 26  1  0
 26 27  2  0
 27 28  1  0
 28 29  2  0
 29 30  1  0
 29 31  1  0
 31 32  2  0
 32  9  1  0
 25 16  1  0
 32 26  1  0
 25 20  1  0
  1 33  1  0
  1 34  1  0
  1 35  1  0
  2 36  1  0
  2 37  1  0
  7 38  1  0
  7 39  1  0
  7 40  1  0
  8 41  1  0
  8 42  1  0
 15 43  1  0
 15 44  1  0
 17 45  1  0
 18 46  1  0
 19 47  1  0
 21 48  1  0
 22 49  1  0
 23 50  1  0
 24 51  1  0
 27 52  1  0
 28 53  1  0
 31 54  1  0
M  CHG  1  13  -1
M  END
>  <meeko>  (78) 
{"free_energy": -5.52, "intermolecular_energy": -7.91, "internal_energy": -1.89, "cluster_size": 87, "cluster_id": 14, "rank_in_cluster": 34}

$$$$

     RDKit          3D

 54 57  0  0  0  0  0  0  0  0999 V2000
   12.2090   33.5830   16.1260 C   0  0  0  0  0  0  0  0  0  0  0  0
   10.6920   33.4100   16.2400 C   0  0  0  0  0  0  0  0  0  0  0  0
   10.0490   34.5430   15.6790 O   0  0  0  0  0  0  0  0  0  0  0  0
   10.4300   35.7870   16.0440 C   0  0  0  0  0  0  0  0  0  0  0  0
   11.5970   36.1790   15.9980 O   0  0  0  0  0  0  0  0  0  0  0  0
    9.3230   36.5360   16.4620 N   0  0  0  0  0  0  0  0  0  0  0  0
    8.2140   35.9380   17.2130 C   0  0  0  0  0  0  0  0  0  0  0  0
    9.2040   37.9650   16.1400 C   0  0  0  0  0  0  0  0  0  0  0  0
    9.7810   38.2950   14.7830 C   0  0  0  0  0  0  0  0  0  0  0  0
    9.8320   37.5060   13.6480 C   0  0  0  0  0  0  0  0  0  0  0  0
    9.3060   36.1230   13.4220 C   0  0  0  0  0  0  0  0  0  0  0  0
    8.1240   35.8710   13.7400 O   0  0  0  0  0  0  0  0  0  0  0  0
   10.0410   35.2330   12.9430 O   0  0  0  0  0  1  0  0  0  0  0  0
   10.5200   38.2090   12.6360 N   0  0  0  0  0  0  0  0  0  0  0  0
   10.8100   37.7810   11.2650 C   0  0  0  0  0  0  0  0  0  0  0  0
    9.7320   38.1430   10.2350 C   0  0  0  0  0  0  0  0  0  0  0  0
    9.4400   39.4970    9.9350 C   0  0  0  0  0  0  0  0  0  0  0  0
    8.4530   39.8330    8.9920 C   0  0  0  0  0  0  0  0  0  0  0  0
    7.7380   38.8200    8.3330 C   0  0  0  0  0  0  0  0  0  0  0  0
    8.0080   37.4680    8.6150 C   0  0  0  0  0  0  0  0  0  0  0  0
    7.2790   36.4640    7.9440 C   0  0  0  0  0  0  0  0  0  0  0  0
    7.5320   35.1060    8.2100 C   0  0  0  0  0  0  0  0  0  0  0  0
    8.5160   34.7500    9.1490 C   0  0  0  0  0  0  0  0  0  0  0  0
    9.2470   35.7470    9.8230 C   0  0  0  0  0  0  0  0  0  0  0  0
    9.0050   37.1190    9.5670 C   0  0  0  0  0  0  0  0  0  0  0  0
   10.9110   39.4490   13.1250 C   0  0  0  0  0  0  0  0  0  0  0  0
   11.6270   40.5100   12.5340 C   0  0  0  0  0  0  0  0  0  0  0  0
   11.8810   41.6800   13.2690 C   0  0  0  0  0  0  0  0  0  0  0  0
   11.4180   41.7860   14.5910 C   0  0  0  0  0  0  0  0  0  0  0  0
   11.6560   42.9130   15.3040 F   0  0  0  0  0  0  0  0  0  0  0  0
   10.7060   40.7210   15.1770 C   0  0  0  0  0  0  0  0  0  0  0  0
   10.4400   39.5270   14.4630 C   0  0  0  0  0  0  0  0  0  0  0  0
   12.6490   33.6332   17.1329 H   0  0  0  0  0  0  0  0  0  0  0  0
   12.6357   32.7277   15.5816 H   0  0  0  0  0  0  0  0  0  0  0  0
   12.4322   34.5124   15.5816 H   0  0  0  0  0  0  0  0  0  0  0  0
   10.3832   32.5051   15.6962 H   0  0  0  0  0  0  0  0  0  0  0  0
   10.4101   33.3121   17.2988 H   0  0  0  0  0  0  0  0  0  0  0  0
    8.4042   36.0405   18.2916 H   0  0  0  0  0  0  0  0  0  0  0  0
    7.2768   36.4530   16.9553 H   0  0  0  0  0  0  0  0  0  0  0  0
    8.1294   34.8720   16.9553 H   0  0  0  0  0  0  0  0  0  0  0  0
    8.1397   38.2426   16.1493 H   0  0  0  0  0  0  0  0  0  0  0  0
    9.7719   38.5293   16.8944 H   0  0  0  0  0  0  0  0  0  0  0  0
   11.7537   38.2518   10.9522 H   0  0  0  0  0  0  0  0  0  0  0  0
   10.8590   36.6823   11.2880 H   0  0  0  0  0  0  0  0  0  0  0  0
    9.9940   40.2971   10.4478 H   0  0  0  0  0  0  0  0  0  0  0  0
    8.2409   40.8894    8.7704 H   0  0  0  0  0  0  0  0  0  0  0  0
    6.9658   39.0836    7.5953 H   0  0  0  0  0  0  0  0  0  0  0  0
    6.5094   36.7441    7.2096 H   0  0  0  0  0  0  0  0  0  0  0  0
    6.9619   34.3253    7.6851 H   0  0  0  0  0  0  0  0  0  0  0  0
    8.7155   33.6886    9.3579 H   0  0  0  0  0  0  0  0  0  0  0  0
   10.0142   35.4573   10.5562 H   0  0  0  0  0  0  0  0  0  0  0  0
   11.9865   40.4218   11.4982 H   0  0  0  0  0  0  0  0  0  0  0  0
   12.4400   42.5095   12.8113 H   0  0  0  0  0  0  0  0  0  0  0  0
   10.3485   40.8189   16.2127 H   0  0  0  0  0  0  0  0  0  0  0  0
  1  2  1  0
  2  3  1  0
  3  4  1  0
  4  5  2  0
  4  6  1  0
  6  7  1  0
  6  8  1  0
  8  9  1  0
  9 10  2  0
 10 11  1  0
 11 12  2  0
 11 13  1  0
 10 14  1  0
 14 15  1  0
 15 16  1  0
 16 17  2  0
 17 18  1  0
 18 19  2  0
 19 20  1  0
 20 21  2  0
 21 22  1  0
 22 23  2  0
 23 24  1  0
 24 25  2  0
 14 26  1  0
 26 27  2  0
 27 28  1  0
 28 29  2  0
 29 30  1  0
 29 31  1  0
 31 32  2  0
 32  9  1  0
 25 16  1  0
 32 26  1  0
 25 20  1  0
  1 33  1  0
  1 34  1  0
  1 35  1  0
  2 36  1  0
  2 37  1  0
  7 38  1  0
  7 39  1  0
  7 40  1  0
  8 41  1  0
  8 42  1  0
 15 43  1  0
 15 44  1  0
 17 45  1  0
 18 46  1  0
 19 47  1  0
 21 48  1  0
 22 49  1  0
 23 50  1  0
 24 51  1  0
 27 52  1  0
 28 53  1  0
 31 54  1  0
M  CHG  1  13  -1
M  END
>  <meeko>  (79) 
{"free_energy": -6.36, "intermolecular_energy": -8.75, "internal_energy": -1.28, "cluster_size": 163, "cluster_id": 4, "rank_in_cluster": 87}

$$$$

     RDKit          3D

 54 57  0  0  0  0  0  0  0  0999 V2000
    6.9680   36.5400   16.4720 C   0  0  0  0  0  0  0  0  0  0  0  0
    8.0200   37.3270   17.2570 C   0  0  0  0  0  0  0  0  0  0  0  0
    9.1220   36.4800   17.5410 O   0  0  0  0  0  0  0  0  0  0  0  0
    8.9640   35.1390   17.5290 C   0  0  0  0  0  0  0  0  0  0  0  0
    8.0440   34.5590   18.1080 O   0  0  0  0  0  0  0  0  0  0  0  0
    9.9760   34.5310   16.7740 N   0  0  0  0  0  0  0  0  0  0  0  0
    9.7880   33.2320   16.1200 C   0  0  0  0  0  0  0  0  0  0  0  0
   11.2950   35.1590   16.6230 C   0  0  0  0  0  0  0  0  0  0  0  0
   11.3100   36.2050   15.5330 C   0  0  0  0  0  0  0  0  0  0  0  0
   12.1290   37.3140   15.4070 C   0  0  0  0  0  0  0  0  0  0  0  0
   13.2490   37.7770   16.2830 C   0  0  0  0  0  0  0  0  0  0  0  0
   12.9810   38.2000   17.4280 O   0  0  0  0  0  0  0  0  0  0  0  0
   14.4300   37.7580   15.8710 O   0  0  0  0  0  1  0  0  0  0  0  0
   11.7370   38.0400   14.2620 N   0  0  0  0  0  0  0  0  0  0  0  0
   12.3170   39.2740   13.7240 C   0  0  0  0  0  0  0  0  0  0  0  0
   12.8850   39.1530   12.3040 C   0  0  0  0  0  0  0  0  0  0  0  0
   12.0650   39.3840   11.1710 C   0  0  0  0  0  0  0  0  0  0  0  0
   12.5820   39.2740    9.8690 C   0  0  0  0  0  0  0  0  0  0  0  0
   13.9290   38.9290    9.6740 C   0  0  0  0  0  0  0  0  0  0  0  0
   14.7640   38.6930   10.7830 C   0  0  0  0  0  0  0  0  0  0  0  0
   16.1140   38.3470   10.5690 C   0  0  0  0  0  0  0  0  0  0  0  0
   16.9660   38.1060   11.6620 C   0  0  0  0  0  0  0  0  0  0  0  0
   16.4680   38.2120   12.9730 C   0  0  0  0  0  0  0  0  0  0  0  0
   15.1210   38.5560   13.1930 C   0  0  0  0  0  0  0  0  0  0  0  0
   14.2490   38.8030   12.1040 C   0  0  0  0  0  0  0  0  0  0  0  0
   10.6660   37.3960   13.6560 C   0  0  0  0  0  0  0  0  0  0  0  0
    9.9060   37.7110   12.5110 C   0  0  0  0  0  0  0  0  0  0  0  0
    8.8610   36.8620   12.1080 C   0  0  0  0  0  0  0  0  0  0  0  0
    8.5810   35.7020   12.8490 C   0  0  0  0  0  0  0  0  0  0  0  0
    7.5780   34.8770   12.4640 F   0  0  0  0  0  0  0  0  0  0  0  0
    9.3420   35.3960   13.9940 C   0  0  0  0  0  0  0  0  0  0  0  0
   10.3960   36.2350   14.4290 C   0  0  0  0  0  0  0  0  0  0  0  0
    6.2900   36.0328   17.1742 H   0  0  0  0  0  0  0  0  0  0  0  0
    6.3909   37.2299   15.8388 H   0  0  0  0  0  0  0  0  0  0  0  0
    7.4669   35.7916   15.8388 H   0  0  0  0  0  0  0  0  0  0  0  0
    8.3602   38.1846   16.6581 H   0  0  0  0  0  0  0  0  0  0  0  0
    7.5822   37.6911   18.1982 H   0  0  0  0  0  0  0  0  0  0  0  0
    9.6747   32.4495   16.8847 H   0  0  0  0  0  0  0  0  0  0  0  0
    8.8852   33.2647   15.4924 H   0  0  0  0  0  0  0  0  0  0  0  0
   10.6630   33.0074   15.4924 H   0  0  0  0  0  0  0  0  0  0  0  0
   11.5709   35.6360   17.5750 H   0  0  0  0  0  0  0  0  0  0  0  0
   12.0125   34.3728   16.3452 H   0  0  0  0  0  0  0  0  0  0  0  0
   11.5323   40.0448   13.7140 H   0  0  0  0  0  0  0  0  0  0  0  0
   13.1659   39.5268   14.3762 H   0  0  0  0  0  0  0  0  0  0  0  0
   11.0080   39.6534   11.3132 H   0  0  0  0  0  0  0  0  0  0  0  0
   11.9309   39.4583    9.0018 H   0  0  0  0  0  0  0  0  0  0  0  0
   14.3323   38.8430    8.6542 H   0  0  0  0  0  0  0  0  0  0  0  0
   16.5025   38.2652    9.5432 H   0  0  0  0  0  0  0  0  0  0  0  0
   18.0185   37.8355   11.4919 H   0  0  0  0  0  0  0  0  0  0  0  0
   17.1332   38.0255   13.8290 H   0  0  0  0  0  0  0  0  0  0  0  0
   14.7409   38.6340   14.2223 H   0  0  0  0  0  0  0  0  0  0  0  0
   10.1307   38.6201   11.9338 H   0  0  0  0  0  0  0  0  0  0  0  0
    8.2649   37.1049   11.2160 H   0  0  0  0  0  0  0  0  0  0  0  0
    9.1119   34.4836   14.5637 H   0  0  0  0  0  0  0  0  0  0  0  0
  1  2  1  0
  2  3  1  0
  3  4  1  0
  4  5  2  0
  4  6  1  0
  6  7  1  0
  6  8  1  0
  8  9  1  0
  9 10  2  0
 10 11  1  0
 11 12  2  0
 11 13  1  0
 10 14  1  0
 14 15  1  0
 15 16  1  0
 16 17  2  0
 17 18  1  0
 18 19  2  0
 19 20  1  0
 20 21  2  0
 21 22  1  0
 22 23  2  0
 23 24  1  0
 24 25  2  0
 14 26  1  0
 26 27  2  0
 27 28  1  0
 28 29  2  0
 29 30  1  0
 29 31  1  0
 31 32  2  0
 32  9  1  0
 25 16  1  0
 32 26  1  0
 25 20  1  0
  1 33  1  0
  1 34  1  0
  1 35  1  0
  2 36  1  0
  2 37  1  0
  7 38  1  0
  7 39  1  0
  7 40  1  0
  8 41  1  0
  8 42  1  0
 15 43  1  0
 15 44  1  0
 17 45  1  0
 18 46  1  0
 19 47  1  0
 21 48  1  0
 22 49  1  0
 23 50  1  0
 24 51  1  0
 27 52  1  0
 28 53  1  0
 31 54  1  0
M  CHG  1  13  -1
M  END
>  <meeko>  (80) 
{"free_energy": -4.85, "intermolecular_energy": -7.24, "internal_energy": -1.89, "cluster_size": 84, "cluster_id": 58, "rank_in_cluster": 71}

$$$$

     RDKit          3D

 54 57  0  0  0  0  0  0  0  0999 V2000
    7.0970   34.7340   17.2760 C   0  0  0  0  0  0  0  0  0  0  0  0
    8.4670   34.3710   17.8540 C   0  0  0  0  0  0  0  0  0  0  0  0
    9.4740   35.0770   17.1460 O   0  0  0  0  0  0  0  0  0  0  0  0
    9.1470   36.1490   16.3940 C   0  0  0  0  0  0  0  0  0  0  0  0
    8.6500   37.1770   16.8580 O   0  0  0  0  0  0  0  0  0  0  0  0
    9.4580   35.9180   15.0480 N   0  0  0  0  0  0  0  0  0  0  0  0
   10.6660   35.1930   14.6390 C   0  0  0  0  0  0  0  0  0  0  0  0
    8.5970   36.4210   13.9690 C   0  0  0  0  0  0  0  0  0  0  0  0
    9.3620   37.2490   12.9640 C   0  0  0  0  0  0  0  0  0  0  0  0
   10.3210   38.2200   13.1920 C   0  0  0  0  0  0  0  0  0  0  0  0
   10.8990   38.7050   14.4840 C   0  0  0  0  0  0  0  0  0  0  0  0
   11.9380   38.1620   14.9180 O   0  0  0  0  0  0  0  0  0  0  0  0
   10.3430   39.6230   15.1250 O   0  0  0  0  0  1  0  0  0  0  0  0
   10.7130   38.7710   11.9530 N   0  0  0  0  0  0  0  0  0  0  0  0
   11.7060   39.8180   11.6950 C   0  0  0  0  0  0  0  0  0  0  0  0
   13.0990   39.5430   12.2760 C   0  0  0  0  0  0  0  0  0  0  0  0
   13.5790   40.2750   13.3910 C   0  0  0  0  0  0  0  0  0  0  0  0
   14.8550   40.0260   13.9260 C   0  0  0  0  0  0  0  0  0  0  0  0
   15.6760   39.0410   13.3540 C   0  0  0  0  0  0  0  0  0  0  0  0
   15.2230   38.3010   12.2450 C   0  0  0  0  0  0  0  0  0  0  0  0
   16.0610   37.3160   11.6840 C   0  0  0  0  0  0  0  0  0  0  0  0
   15.6300   36.5660   10.5760 C   0  0  0  0  0  0  0  0  0  0  0  0
   14.3560   36.7990   10.0270 C   0  0  0  0  0  0  0  0  0  0  0  0
   13.5150   37.7810   10.5820 C   0  0  0  0  0  0  0  0  0  0  0  0
   13.9340   38.5470   11.6990 C   0  0  0  0  0  0  0  0  0  0  0  0
   10.0050   38.1510   10.9320 C   0  0  0  0  0  0  0  0  0  0  0  0
   10.0120   38.3390    9.5340 C   0  0  0  0  0  0  0  0  0  0  0  0
    9.1840   37.5530    8.7170 C   0  0  0  0  0  0  0  0  0  0  0  0
    8.3520   36.5800    9.2990 C   0  0  0  0  0  0  0  0  0  0  0  0
    7.5540   35.8160    8.5160 F   0  0  0  0  0  0  0  0  0  0  0  0
    8.3470   36.4000   10.6950 C   0  0  0  0  0  0  0  0  0  0  0  0
    9.1660   37.1820   11.5450 C   0  0  0  0  0  0  0  0  0  0  0  0
    6.3902   34.9213   18.0978 H   0  0  0  0  0  0  0  0  0  0  0  0
    7.1881   35.6390   16.6574 H   0  0  0  0  0  0  0  0  0  0  0  0
    6.7281   33.9026   16.6574 H   0  0  0  0  0  0  0  0  0  0  0  0
    8.5025   34.6478   18.9180 H   0  0  0  0  0  0  0  0  0  0  0  0
    8.6351   33.2885   17.7544 H   0  0  0  0  0  0  0  0  0  0  0  0
   11.2158   34.8630   15.5327 H   0  0  0  0  0  0  0  0  0  0  0  0
   10.3818   34.3161   14.0388 H   0  0  0  0  0  0  0  0  0  0  0  0
   11.3062   35.8563   14.0388 H   0  0  0  0  0  0  0  0  0  0  0  0
    8.1438   35.5639   13.4494 H   0  0  0  0  0  0  0  0  0  0  0  0
    7.8308   37.0665   14.4232 H   0  0  0  0  0  0  0  0  0  0  0  0
   11.8065   39.9329   10.6056 H   0  0  0  0  0  0  0  0  0  0  0  0
   11.3360   40.7249   12.1957 H   0  0  0  0  0  0  0  0  0  0  0  0
   12.9433   41.0497   13.8446 H   0  0  0  0  0  0  0  0  0  0  0  0
   15.2102   40.6028   14.7927 H   0  0  0  0  0  0  0  0  0  0  0  0
   16.6745   38.8471   13.7728 H   0  0  0  0  0  0  0  0  0  0  0  0
   17.0564   37.1335   12.1151 H   0  0  0  0  0  0  0  0  0  0  0  0
   16.2870   35.7992   10.1396 H   0  0  0  0  0  0  0  0  0  0  0  0
   14.0162   36.2117    9.1612 H   0  0  0  0  0  0  0  0  0  0  0  0
   12.5212   37.9564   10.1443 H   0  0  0  0  0  0  0  0  0  0  0  0
   10.6657   39.1009    9.0843 H   0  0  0  0  0  0  0  0  0  0  0  0
    9.1860   37.6976    7.6265 H   0  0  0  0  0  0  0  0  0  0  0  0
    7.6918   35.6342   11.1357 H   0  0  0  0  0  0  0  0  0  0  0  0
  1  2  1  0
  2  3  1  0
  3  4  1  0
  4  5  2  0
  4  6  1  0
  6  7  1  0
  6  8  1  0
  8  9  1  0
  9 10  2  0
 10 11  1  0
 11 12  2  0
 11 13  1  0
 10 14  1  0
 14 15  1  0
 15 16  1  0
 16 17  2  0
 17 18  1  0
 18 19  2  0
 19 20  1  0
 20 21  2  0
 21 22  1  0
 22 23  2  0
 23 24  1  0
 24 25  2  0
 14 26  1  0
 26 27  2  0
 27 28  1  0
 28 29  2  0
 29 30  1  0
 29 31  1  0
 31 32  2  0
 32  9  1  0
 25 16  1  0
 32 26  1  0
 25 20  1  0
  1 33  1  0
  1 34  1  0
  1 35  1  0
  2 36  1  0
  2 37  1  0
  7 38  1  0
  7 39  1  0
  7 40  1  0
  8 41  1  0
  8 42  1  0
 15 43  1  0
 15 44  1  0
 17 45  1  0
 18 46  1  0
 19 47  1  0
 21 48  1  0
 22 49  1  0
 23 50  1  0
 24 51  1  0
 27 52  1  0
 28 53  1  0
 31 54  1  0
M  CHG  1  13  -1
M  END
>  <meeko>  (81) 
{"free_energy": -5.33, "intermolecular_energy": -7.72, "internal_energy": -2.02, "cluster_size": 84, "cluster_id": 58, "rank_in_cluster": 46}

$$$$

     RDKit          3D

 54 57  0  0  0  0  0  0  0  0999 V2000
    8.7990   43.0160   15.9550 C   0  0  0  0  0  0  0  0  0  0  0  0
   10.0310   42.2730   15.4310 C   0  0  0  0  0  0  0  0  0  0  0  0
   10.4860   41.3660   16.4220 O   0  0  0  0  0  0  0  0  0  0  0  0
   10.3970   40.0350   16.2140 C   0  0  0  0  0  0  0  0  0  0  0  0
    9.4940   39.3350   16.6760 O   0  0  0  0  0  0  0  0  0  0  0  0
   11.4550   39.5920   15.4090 N   0  0  0  0  0  0  0  0  0  0  0  0
   12.4400   38.6140   15.8850 C   0  0  0  0  0  0  0  0  0  0  0  0
   11.6470   40.1120   14.0490 C   0  0  0  0  0  0  0  0  0  0  0  0
   11.7080   39.0090   13.0180 C   0  0  0  0  0  0  0  0  0  0  0  0
   10.8590   37.9300   12.8520 C   0  0  0  0  0  0  0  0  0  0  0  0
    9.6240   37.5620   13.6140 C   0  0  0  0  0  0  0  0  0  0  0  0
    9.0260   38.4530   14.2540 O   0  0  0  0  0  0  0  0  0  0  0  0
    9.2120   36.3810   13.6250 O   0  0  0  0  0  1  0  0  0  0  0  0
   11.3450   37.1260   11.7990 N   0  0  0  0  0  0  0  0  0  0  0  0
   10.7740   35.8900   11.2590 C   0  0  0  0  0  0  0  0  0  0  0  0
    9.6140   36.0910   10.2750 C   0  0  0  0  0  0  0  0  0  0  0  0
    8.8640   34.9860    9.8000 C   0  0  0  0  0  0  0  0  0  0  0  0
    7.8010   35.1660    8.8990 C   0  0  0  0  0  0  0  0  0  0  0  0
    7.4680   36.4550    8.4530 C   0  0  0  0  0  0  0  0  0  0  0  0
    8.1990   37.5690    8.9080 C   0  0  0  0  0  0  0  0  0  0  0  0
    7.8520   38.8560    8.4500 C   0  0  0  0  0  0  0  0  0  0  0  0
    8.5680   39.9830    8.8910 C   0  0  0  0  0  0  0  0  0  0  0  0
    9.6340   39.8240    9.7940 C   0  0  0  0  0  0  0  0  0  0  0  0
    9.9870   38.5410   10.2550 C   0  0  0  0  0  0  0  0  0  0  0  0
    9.2760   37.3950    9.8210 C   0  0  0  0  0  0  0  0  0  0  0  0
   12.5070   37.6920   11.2910 C   0  0  0  0  0  0  0  0  0  0  0  0
   13.3780   37.2840   10.2590 C   0  0  0  0  0  0  0  0  0  0  0  0
   14.5000   38.0660    9.9390 C   0  0  0  0  0  0  0  0  0  0  0  0
   14.7470   39.2530   10.6500 C   0  0  0  0  0  0  0  0  0  0  0  0
   15.8260   40.0140   10.3440 F   0  0  0  0  0  0  0  0  0  0  0  0
   13.8750   39.6520   11.6820 C   0  0  0  0  0  0  0  0  0  0  0  0
   12.7400   38.8820   12.0310 C   0  0  0  0  0  0  0  0  0  0  0  0
    8.8079   43.0106   17.0550 H   0  0  0  0  0  0  0  0  0  0  0  0
    8.8158   44.0547   15.5932 H   0  0  0  0  0  0  0  0  0  0  0  0
    7.8882   42.5165   15.5932 H   0  0  0  0  0  0  0  0  0  0  0  0
    9.7656   41.7184   14.5189 H   0  0  0  0  0  0  0  0  0  0  0  0
   10.8270   42.9958   15.1986 H   0  0  0  0  0  0  0  0  0  0  0  0
   12.4474   38.6067   16.9850 H   0  0  0  0  0  0  0  0  0  0  0  0
   12.1727   37.6138   15.5134 H   0  0  0  0  0  0  0  0  0  0  0  0
   13.4383   38.8884   15.5134 H   0  0  0  0  0  0  0  0  0  0  0  0
   10.8081   40.7799   13.8037 H   0  0  0  0  0  0  0  0  0  0  0  0
   12.6069   40.6486   14.0257 H   0  0  0  0  0  0  0  0  0  0  0  0
   11.5736   35.3433   10.7377 H   0  0  0  0  0  0  0  0  0  0  0  0
   10.3593   35.3407   12.1171 H   0  0  0  0  0  0  0  0  0  0  0  0
    9.1181   33.9719   10.1420 H   0  0  0  0  0  0  0  0  0  0  0  0
    7.2293   34.2964    8.5428 H   0  0  0  0  0  0  0  0  0  0  0  0
    6.6355   36.5946    7.7477 H   0  0  0  0  0  0  0  0  0  0  0  0
    7.0172   38.9794    7.7443 H   0  0  0  0  0  0  0  0  0  0  0  0
    8.2950   40.9858    8.5307 H   0  0  0  0  0  0  0  0  0  0  0  0
   10.1941   40.7047   10.1415 H   0  0  0  0  0  0  0  0  0  0  0  0
   10.8239   38.4274   10.9598 H   0  0  0  0  0  0  0  0  0  0  0  0
   13.1787   36.3545    9.7056 H   0  0  0  0  0  0  0  0  0  0  0  0
   15.1822   37.7509    9.1357 H   0  0  0  0  0  0  0  0  0  0  0  0
   14.0811   40.5837   12.2293 H   0  0  0  0  0  0  0  0  0  0  0  0
  1  2  1  0
  2  3  1  0
  3  4  1  0
  4  5  2  0
  4  6  1  0
  6  7  1  0
  6  8  1  0
  8  9  1  0
  9 10  2  0
 10 11  1  0
 11 12  2  0
 11 13  1  0
 10 14  1  0
 14 15  1  0
 15 16  1  0
 16 17  2  0
 17 18  1  0
 18 19  2  0
 19 20  1  0
 20 21  2  0
 21 22  1  0
 22 23  2  0
 23 24  1  0
 24 25  2  0
 14 26  1  0
 26 27  2  0
 27 28  1  0
 28 29  2  0
 29 30  1  0
 29 31  1  0
 31 32  2  0
 32  9  1  0
 25 16  1  0
 32 26  1  0
 25 20  1  0
  1 33  1  0
  1 34  1  0
  1 35  1  0
  2 36  1  0
  2 37  1  0
  7 38  1  0
  7 39  1  0
  7 40  1  0
  8 41  1  0
  8 42  1  0
 15 43  1  0
 15 44  1  0
 17 45  1  0
 18 46  1  0
 19 47  1  0
 21 48  1  0
 22 49  1  0
 23 50  1  0
 24 51  1  0
 27 52  1  0
 28 53  1  0
 31 54  1  0
M  CHG  1  13  -1
M  END
>  <meeko>  (82) 
{"free_energy": -5.42, "intermolecular_energy": -7.8, "internal_energy": -0.58, "cluster_size": 283, "cluster_id": 7, "rank_in_cluster": 241}

$$$$

     RDKit          3D

 54 57  0  0  0  0  0  0  0  0999 V2000
   18.0750   41.1100   14.7730 C   0  0  0  0  0  0  0  0  0  0  0  0
   17.9560   39.7070   14.1730 C   0  0  0  0  0  0  0  0  0  0  0  0
   16.7260   39.6000   13.4750 O   0  0  0  0  0  0  0  0  0  0  0  0
   16.7210   39.3870   12.1420 C   0  0  0  0  0  0  0  0  0  0  0  0
   17.7400   39.1540   11.4890 O   0  0  0  0  0  0  0  0  0  0  0  0
   15.4170   39.4650   11.6360 N   0  0  0  0  0  0  0  0  0  0  0  0
   14.8210   38.3820   10.8460 C   0  0  0  0  0  0  0  0  0  0  0  0
   14.5870   40.6570   11.8500 C   0  0  0  0  0  0  0  0  0  0  0  0
   13.1190   40.3810   11.6200 C   0  0  0  0  0  0  0  0  0  0  0  0
   12.4670   40.0960   10.4330 C   0  0  0  0  0  0  0  0  0  0  0  0
   13.0220   39.9440    9.0520 C   0  0  0  0  0  0  0  0  0  0  0  0
   14.0050   40.6420    8.7200 O   0  0  0  0  0  0  0  0  0  0  0  0
   12.5020   39.1480    8.2410 O   0  0  0  0  0  1  0  0  0  0  0  0
   11.0850   39.9750   10.6920 N   0  0  0  0  0  0  0  0  0  0  0  0
   10.0050   39.6700    9.7490 C   0  0  0  0  0  0  0  0  0  0  0  0
    9.6860   38.1770    9.5950 C   0  0  0  0  0  0  0  0  0  0  0  0
   10.3950   37.2020   10.3400 C   0  0  0  0  0  0  0  0  0  0  0  0
   10.1060   35.8340   10.2030 C   0  0  0  0  0  0  0  0  0  0  0  0
    9.1020   35.4140    9.3150 C   0  0  0  0  0  0  0  0  0  0  0  0
    8.3840   36.3630    8.5630 C   0  0  0  0  0  0  0  0  0  0  0  0
    7.3800   35.9230    7.6760 C   0  0  0  0  0  0  0  0  0  0  0  0
    6.6500   36.8530    6.9140 C   0  0  0  0  0  0  0  0  0  0  0  0
    6.9240   38.2270    7.0380 C   0  0  0  0  0  0  0  0  0  0  0  0
    7.9260   38.6720    7.9210 C   0  0  0  0  0  0  0  0  0  0  0  0
    8.6710   37.7490    8.6970 C   0  0  0  0  0  0  0  0  0  0  0  0
   10.8530   40.1840   12.0450 C   0  0  0  0  0  0  0  0  0  0  0  0
    9.6650   40.1880   12.8050 C   0  0  0  0  0  0  0  0  0  0  0  0
    9.7200   40.4230   14.1890 C   0  0  0  0  0  0  0  0  0  0  0  0
   10.9610   40.6520   14.8090 C   0  0  0  0  0  0  0  0  0  0  0  0
   11.0200   40.8750   16.1430 F   0  0  0  0  0  0  0  0  0  0  0  0
   12.1420   40.6500   14.0430 C   0  0  0  0  0  0  0  0  0  0  0  0
   12.1180   40.4220   12.6450 C   0  0  0  0  0  0  0  0  0  0  0  0
   18.0691   41.0410   15.8708 H   0  0  0  0  0  0  0  0  0  0  0  0
   19.0156   41.5728   14.4397 H   0  0  0  0  0  0  0  0  0  0  0  0
   17.2258   41.7246   14.4397 H   0  0  0  0  0  0  0  0  0  0  0  0
   18.7900   39.5327   13.4773 H   0  0  0  0  0  0  0  0  0  0  0  0
   17.9904   38.9574   14.9773 H   0  0  0  0  0  0  0  0  0  0  0  0
   14.4028   37.6220   11.5224 H   0  0  0  0  0  0  0  0  0  0  0  0
   14.0198   38.7890   10.2116 H   0  0  0  0  0  0  0  0  0  0  0  0
   15.5935   37.9229   10.2116 H   0  0  0  0  0  0  0  0  0  0  0  0
   14.7242   41.0027   12.8852 H   0  0  0  0  0  0  0  0  0  0  0  0
   14.9035   41.4225   11.1262 H   0  0  0  0  0  0  0  0  0  0  0  0
    9.0942   40.1803   10.0955 H   0  0  0  0  0  0  0  0  0  0  0  0
   10.3487   40.0159    8.7630 H   0  0  0  0  0  0  0  0  0  0  0  0
   11.1841   37.5214   11.0366 H   0  0  0  0  0  0  0  0  0  0  0  0
   10.6659   35.0919   10.7911 H   0  0  0  0  0  0  0  0  0  0  0  0
    8.8766   34.3428    9.2071 H   0  0  0  0  0  0  0  0  0  0  0  0
    7.1668   34.8482    7.5796 H   0  0  0  0  0  0  0  0  0  0  0  0
    5.8671   36.5068    6.2232 H   0  0  0  0  0  0  0  0  0  0  0  0
    6.3538   38.9559    6.4434 H   0  0  0  0  0  0  0  0  0  0  0  0
    8.1332   39.7486    8.0098 H   0  0  0  0  0  0  0  0  0  0  0  0
    8.6969   40.0074   12.3149 H   0  0  0  0  0  0  0  0  0  0  0  0
    8.7957   40.4278   14.7853 H   0  0  0  0  0  0  0  0  0  0  0  0
   13.1059   40.8297   14.5415 H   0  0  0  0  0  0  0  0  0  0  0  0
  1  2  1  0
  2  3  1  0
  3  4  1  0
  4  5  2  0
  4  6  1  0
  6  7  1  0
  6  8  1  0
  8  9  1  0
  9 10  2  0
 10 11  1  0
 11 12  2  0
 11 13  1  0
 10 14  1  0
 14 15  1  0
 15 16  1  0
 16 17  2  0
 17 18  1  0
 18 19  2  0
 19 20  1  0
 20 21  2  0
 21 22  1  0
 22 23  2  0
 23 24  1  0
 24 25  2  0
 14 26  1  0
 26 27  2  0
 27 28  1  0
 28 29  2  0
 29 30  1  0
 29 31  1  0
 31 32  2  0
 32  9  1  0
 25 16  1  0
 32 26  1  0
 25 20  1  0
  1 33  1  0
  1 34  1  0
  1 35  1  0
  2 36  1  0
  2 37  1  0
  7 38  1  0
  7 39  1  0
  7 40  1  0
  8 41  1  0
  8 42  1  0
 15 43  1  0
 15 44  1  0
 17 45  1  0
 18 46  1  0
 19 47  1  0
 21 48  1  0
 22 49  1  0
 23 50  1  0
 24 51  1  0
 27 52  1  0
 28 53  1  0
 31 54  1  0
M  CHG  1  13  -1
M  END
>  <meeko>  (83) 
{"free_energy": -5.41, "intermolecular_energy": -7.79, "internal_energy": -1.39, "cluster_size": 20, "cluster_id": 87, "rank_in_cluster": 9}

$$$$

     RDKit          3D

 54 57  0  0  0  0  0  0  0  0999 V2000
    9.0040   46.8110   14.3640 C   0  0  0  0  0  0  0  0  0  0  0  0
    9.8830   46.3180   13.2120 C   0  0  0  0  0  0  0  0  0  0  0  0
    9.8620   44.9000   13.1820 O   0  0  0  0  0  0  0  0  0  0  0  0
   10.7260   44.1950   13.9430 C   0  0  0  0  0  0  0  0  0  0  0  0
   10.7480   44.2520   15.1730 O   0  0  0  0  0  0  0  0  0  0  0  0
   11.5600   43.4080   13.1380 N   0  0  0  0  0  0  0  0  0  0  0  0
   12.2340   43.9470   11.9510 C   0  0  0  0  0  0  0  0  0  0  0  0
   11.7790   41.9850   13.4300 C   0  0  0  0  0  0  0  0  0  0  0  0
   11.1590   41.0850   12.3870 C   0  0  0  0  0  0  0  0  0  0  0  0
    9.8590   41.0740   11.9140 C   0  0  0  0  0  0  0  0  0  0  0  0
    8.7080   41.9630   12.2670 C   0  0  0  0  0  0  0  0  0  0  0  0
    8.4900   42.2130   13.4720 O   0  0  0  0  0  0  0  0  0  0  0  0
    7.9690   42.4310   11.3740 O   0  0  0  0  0  1  0  0  0  0  0  0
    9.7200   40.0160   10.9910 N   0  0  0  0  0  0  0  0  0  0  0  0
    8.5320   39.6230   10.2280 C   0  0  0  0  0  0  0  0  0  0  0  0
    8.3240   38.1080   10.0930 C   0  0  0  0  0  0  0  0  0  0  0  0
    8.5710   37.2410   11.1870 C   0  0  0  0  0  0  0  0  0  0  0  0
    8.3810   35.8540   11.0670 C   0  0  0  0  0  0  0  0  0  0  0  0
    7.9440   35.3070    9.8500 C   0  0  0  0  0  0  0  0  0  0  0  0
    7.6940   36.1470    8.7490 C   0  0  0  0  0  0  0  0  0  0  0  0
    7.2560   35.5800    7.5340 C   0  0  0  0  0  0  0  0  0  0  0  0
    7.0010   36.4000    6.4200 C   0  0  0  0  0  0  0  0  0  0  0  0
    7.1830   37.7910    6.5200 C   0  0  0  0  0  0  0  0  0  0  0  0
    7.6210   38.3630    7.7300 C   0  0  0  0  0  0  0  0  0  0  0  0
    7.8820   37.5520    8.8620 C   0  0  0  0  0  0  0  0  0  0  0  0
   10.9330   39.3490   10.8740 C   0  0  0  0  0  0  0  0  0  0  0  0
   11.3190   38.2300   10.1070 C   0  0  0  0  0  0  0  0  0  0  0  0
   12.6410   37.7580   10.1730 C   0  0  0  0  0  0  0  0  0  0  0  0
   13.5710   38.4070   11.0030 C   0  0  0  0  0  0  0  0  0  0  0  0
   14.8480   37.9600   11.0680 F   0  0  0  0  0  0  0  0  0  0  0  0
   13.1770   39.5220   11.7680 C   0  0  0  0  0  0  0  0  0  0  0  0
   11.8510   40.0160   11.7280 C   0  0  0  0  0  0  0  0  0  0  0  0
    9.4742   46.5473   15.3228 H   0  0  0  0  0  0  0  0  0  0  0  0
    8.8924   47.9034   14.2985 H   0  0  0  0  0  0  0  0  0  0  0  0
    8.0137   46.3367   14.2985 H   0  0  0  0  0  0  0  0  0  0  0  0
    9.4968   46.7117   12.2602 H   0  0  0  0  0  0  0  0  0  0  0  0
   10.9151   46.6689   13.3588 H   0  0  0  0  0  0  0  0  0  0  0  0
   13.0575   44.6056   12.2643 H   0  0  0  0  0  0  0  0  0  0  0  0
   12.6358   43.1183   11.3495 H   0  0  0  0  0  0  0  0  0  0  0  0
   11.5139   44.5212   11.3495 H   0  0  0  0  0  0  0  0  0  0  0  0
   12.8616   41.7933   13.4646 H   0  0  0  0  0  0  0  0  0  0  0  0
   11.3011   41.7615   14.3952 H   0  0  0  0  0  0  0  0  0  0  0  0
    7.6486   40.0462   10.7286 H   0  0  0  0  0  0  0  0  0  0  0  0
    8.6790   40.0069    9.2077 H   0  0  0  0  0  0  0  0  0  0  0  0
    8.9164   37.6601   12.1436 H   0  0  0  0  0  0  0  0  0  0  0  0
    8.5748   35.1963   11.9271 H   0  0  0  0  0  0  0  0  0  0  0  0
    7.7969   34.2208    9.7571 H   0  0  0  0  0  0  0  0  0  0  0  0
    7.1132   34.4920    7.4574 H   0  0  0  0  0  0  0  0  0  0  0  0
    6.6603   35.9548    5.4736 H   0  0  0  0  0  0  0  0  0  0  0  0
    6.9826   38.4341    5.6504 H   0  0  0  0  0  0  0  0  0  0  0  0
    7.7621   39.4519    7.7970 H   0  0  0  0  0  0  0  0  0  0  0  0
   10.5864   37.7276    9.4582 H   0  0  0  0  0  0  0  0  0  0  0  0
   12.9464   36.8848    9.5779 H   0  0  0  0  0  0  0  0  0  0  0  0
   13.9168   40.0205   12.4115 H   0  0  0  0  0  0  0  0  0  0  0  0
  1  2  1  0
  2  3  1  0
  3  4  1  0
  4  5  2  0
  4  6  1  0
  6  7  1  0
  6  8  1  0
  8  9  1  0
  9 10  2  0
 10 11  1  0
 11 12  2  0
 11 13  1  0
 10 14  1  0
 14 15  1  0
 15 16  1  0
 16 17  2  0
 17 18  1  0
 18 19  2  0
 19 20  1  0
 20 21  2  0
 21 22  1  0
 22 23  2  0
 23 24  1  0
 24 25  2  0
 14 26  1  0
 26 27  2  0
 27 28  1  0
 28 29  2  0
 29 30  1  0
 29 31  1  0
 31 32  2  0
 32  9  1  0
 25 16  1  0
 32 26  1  0
 25 20  1  0
  1 33  1  0
  1 34  1  0
  1 35  1  0
  2 36  1  0
  2 37  1  0
  7 38  1  0
  7 39  1  0
  7 40  1  0
  8 41  1  0
  8 42  1  0
 15 43  1  0
 15 44  1  0
 17 45  1  0
 18 46  1  0
 19 47  1  0
 21 48  1  0
 22 49  1  0
 23 50  1  0
 24 51  1  0
 27 52  1  0
 28 53  1  0
 31 54  1  0
M  CHG  1  13  -1
M  END
>  <meeko>  (84) 
{"free_energy": -6.47, "intermolecular_energy": -8.86, "internal_energy": -1.49, "cluster_size": 210, "cluster_id": 15, "rank_in_cluster": 51}

$$$$

     RDKit          3D

 54 57  0  0  0  0  0  0  0  0999 V2000
   14.8390   39.3800   13.8090 C   0  0  0  0  0  0  0  0  0  0  0  0
   13.8530   38.4790   13.0610 C   0  0  0  0  0  0  0  0  0  0  0  0
   13.3490   39.1760   11.9330 O   0  0  0  0  0  0  0  0  0  0  0  0
   13.0860   38.5090   10.7880 C   0  0  0  0  0  0  0  0  0  0  0  0
   13.4270   37.3420   10.5900 O   0  0  0  0  0  0  0  0  0  0  0  0
   12.3830   39.3270    9.8930 N   0  0  0  0  0  0  0  0  0  0  0  0
   12.9470   39.7370    8.6030 C   0  0  0  0  0  0  0  0  0  0  0  0
   11.0460   39.8400   10.2200 C   0  0  0  0  0  0  0  0  0  0  0  0
   10.2570   38.8770   11.0760 C   0  0  0  0  0  0  0  0  0  0  0  0
   10.0890   38.8750   12.4490 C   0  0  0  0  0  0  0  0  0  0  0  0
   10.6040   39.8360   13.4750 C   0  0  0  0  0  0  0  0  0  0  0  0
   11.5190   40.6230   13.1530 O   0  0  0  0  0  0  0  0  0  0  0  0
   10.1400   39.8370   14.6360 O   0  0  0  0  0  1  0  0  0  0  0  0
    9.3230   37.7470   12.8120 N   0  0  0  0  0  0  0  0  0  0  0  0
    8.8840   37.3350   14.1480 C   0  0  0  0  0  0  0  0  0  0  0  0
    9.5370   36.0500   14.6740 C   0  0  0  0  0  0  0  0  0  0  0  0
    8.9220   34.7890   14.4730 C   0  0  0  0  0  0  0  0  0  0  0  0
    9.5160   33.6090   14.9520 C   0  0  0  0  0  0  0  0  0  0  0  0
   10.7370   33.6680   15.6440 C   0  0  0  0  0  0  0  0  0  0  0  0
   11.3670   34.9080   15.8580 C   0  0  0  0  0  0  0  0  0  0  0  0
   12.5920   34.9490   16.5550 C   0  0  0  0  0  0  0  0  0  0  0  0
   13.2390   36.1770   16.7800 C   0  0  0  0  0  0  0  0  0  0  0  0
   12.6610   37.3690   16.3080 C   0  0  0  0  0  0  0  0  0  0  0  0
   11.4370   37.3350   15.6120 C   0  0  0  0  0  0  0  0  0  0  0  0
   10.7720   36.1070   15.3750 C   0  0  0  0  0  0  0  0  0  0  0  0
    9.0010   37.0260   11.6690 C   0  0  0  0  0  0  0  0  0  0  0  0
    8.2760   35.8300   11.4860 C   0  0  0  0  0  0  0  0  0  0  0  0
    8.0900   35.3150   10.1920 C   0  0  0  0  0  0  0  0  0  0  0  0
    8.6270   35.9980    9.0870 C   0  0  0  0  0  0  0  0  0  0  0  0
    8.4480   35.5090    7.8370 F   0  0  0  0  0  0  0  0  0  0  0  0
    9.3530   37.1890    9.2780 C   0  0  0  0  0  0  0  0  0  0  0  0
    9.5630   37.7290   10.5700 C   0  0  0  0  0  0  0  0  0  0  0  0
   14.7011   39.2540   14.8930 H   0  0  0  0  0  0  0  0  0  0  0  0
   15.8681   39.1037   13.5357 H   0  0  0  0  0  0  0  0  0  0  0  0
   14.6563   40.4297   13.5357 H   0  0  0  0  0  0  0  0  0  0  0  0
   14.3680   37.5654   12.7292 H   0  0  0  0  0  0  0  0  0  0  0  0
   13.0224   38.2054   13.7283 H   0  0  0  0  0  0  0  0  0  0  0  0
   13.8260   40.3760    8.7736 H   0  0  0  0  0  0  0  0  0  0  0  0
   13.2472   38.8448    8.0339 H   0  0  0  0  0  0  0  0  0  0  0  0
   12.1909   40.2978    8.0339 H   0  0  0  0  0  0  0  0  0  0  0  0
   11.1547   40.7898   10.7641 H   0  0  0  0  0  0  0  0  0  0  0  0
   10.4982   39.9786    9.2762 H   0  0  0  0  0  0  0  0  0  0  0  0
    9.1166   38.1489   14.8504 H   0  0  0  0  0  0  0  0  0  0  0  0
    7.8074   37.1239   14.0679 H   0  0  0  0  0  0  0  0  0  0  0  0
    7.9649   34.7331   13.9337 H   0  0  0  0  0  0  0  0  0  0  0  0
    9.0248   32.6390   14.7850 H   0  0  0  0  0  0  0  0  0  0  0  0
   11.2012   32.7439   16.0190 H   0  0  0  0  0  0  0  0  0  0  0  0
   13.0435   34.0164   16.9243 H   0  0  0  0  0  0  0  0  0  0  0  0
   14.1948   36.2052   17.3238 H   0  0  0  0  0  0  0  0  0  0  0  0
   13.1661   38.3304   16.4828 H   0  0  0  0  0  0  0  0  0  0  0  0
   10.9923   38.2730   15.2482 H   0  0  0  0  0  0  0  0  0  0  0  0
    7.8569   35.3014   12.3549 H   0  0  0  0  0  0  0  0  0  0  0  0
    7.5268   34.3817   10.0444 H   0  0  0  0  0  0  0  0  0  0  0  0
    9.7667   37.7122    8.4033 H   0  0  0  0  0  0  0  0  0  0  0  0
  1  2  1  0
  2  3  1  0
  3  4  1  0
  4  5  2  0
  4  6  1  0
  6  7  1  0
  6  8  1  0
  8  9  1  0
  9 10  2  0
 10 11  1  0
 11 12  2  0
 11 13  1  0
 10 14  1  0
 14 15  1  0
 15 16  1  0
 16 17  2  0
 17 18  1  0
 18 19  2  0
 19 20  1  0
 20 21  2  0
 21 22  1  0
 22 23  2  0
 23 24  1  0
 24 25  2  0
 14 26  1  0
 26 27  2  0
 27 28  1  0
 28 29  2  0
 29 30  1  0
 29 31  1  0
 31 32  2  0
 32  9  1  0
 25 16  1  0
 32 26  1  0
 25 20  1  0
  1 33  1  0
  1 34  1  0
  1 35  1  0
  2 36  1  0
  2 37  1  0
  7 38  1  0
  7 39  1  0
  7 40  1  0
  8 41  1  0
  8 42  1  0
 15 43  1  0
 15 44  1  0
 17 45  1  0
 18 46  1  0
 19 47  1  0
 21 48  1  0
 22 49  1  0
 23 50  1  0
 24 51  1  0
 27 52  1  0
 28 53  1  0
 31 54  1  0
M  CHG  1  13  -1
M  END
>  <meeko>  (85) 
{"free_energy": -5.7, "intermolecular_energy": -8.09, "internal_energy": -2.36, "cluster_size": 191, "cluster_id": 13, "rank_in_cluster": 80}

$$$$

     RDKit          3D

 54 57  0  0  0  0  0  0  0  0999 V2000
    6.4690   39.2230    6.1390 C   0  0  0  0  0  0  0  0  0  0  0  0
    6.5830   37.8620    6.8300 C   0  0  0  0  0  0  0  0  0  0  0  0
    7.6760   37.8870    7.7340 O   0  0  0  0  0  0  0  0  0  0  0  0
    7.5510   37.3370    8.9610 C   0  0  0  0  0  0  0  0  0  0  0  0
    6.9720   37.8910    9.8970 O   0  0  0  0  0  0  0  0  0  0  0  0
    8.1590   36.0750    8.9980 N   0  0  0  0  0  0  0  0  0  0  0  0
    7.6660   34.9480    8.1990 C   0  0  0  0  0  0  0  0  0  0  0  0
    9.3130   35.8110    9.8670 C   0  0  0  0  0  0  0  0  0  0  0  0
    9.5270   36.9080   10.8830 C   0  0  0  0  0  0  0  0  0  0  0  0
    9.9660   38.2040   10.6800 C   0  0  0  0  0  0  0  0  0  0  0  0
   10.3200   38.9020    9.4050 C   0  0  0  0  0  0  0  0  0  0  0  0
   11.3240   38.5180    8.7680 O   0  0  0  0  0  0  0  0  0  0  0  0
    9.6350   39.8650    8.9950 O   0  0  0  0  0  1  0  0  0  0  0  0
   10.0750   38.8490   11.9310 N   0  0  0  0  0  0  0  0  0  0  0  0
   10.4900   40.2260   12.2130 C   0  0  0  0  0  0  0  0  0  0  0  0
   11.5420   40.7920   11.2490 C   0  0  0  0  0  0  0  0  0  0  0  0
   11.3320   42.0300   10.5910 C   0  0  0  0  0  0  0  0  0  0  0  0
   12.2920   42.5520    9.7080 C   0  0  0  0  0  0  0  0  0  0  0  0
   13.4810   41.8450    9.4650 C   0  0  0  0  0  0  0  0  0  0  0  0
   13.7120   40.6130   10.1060 C   0  0  0  0  0  0  0  0  0  0  0  0
   14.9120   39.9170    9.8490 C   0  0  0  0  0  0  0  0  0  0  0  0
   15.1640   38.6840   10.4770 C   0  0  0  0  0  0  0  0  0  0  0  0
   14.2160   38.1450   11.3650 C   0  0  0  0  0  0  0  0  0  0  0  0
   13.0160   38.8350   11.6250 C   0  0  0  0  0  0  0  0  0  0  0  0
   12.7460   40.0780   11.0010 C   0  0  0  0  0  0  0  0  0  0  0  0
    9.7060   37.9640   12.9350 C   0  0  0  0  0  0  0  0  0  0  0  0
    9.6520   38.1030   14.3380 C   0  0  0  0  0  0  0  0  0  0  0  0
    9.2240   37.0270   15.1330 C   0  0  0  0  0  0  0  0  0  0  0  0
    8.8490   35.8160   14.5240 C   0  0  0  0  0  0  0  0  0  0  0  0
    8.4320   34.7770   15.2850 F   0  0  0  0  0  0  0  0  0  0  0  0
    8.9090   35.6840   13.1230 C   0  0  0  0  0  0  0  0  0  0  0  0
    9.3430   36.7480   12.2960 C   0  0  0  0  0  0  0  0  0  0  0  0
    6.4026   40.0156    6.8989 H   0  0  0  0  0  0  0  0  0  0  0  0
    7.3562   39.3907    5.5108 H   0  0  0  0  0  0  0  0  0  0  0  0
    5.5662   39.2408    5.5108 H   0  0  0  0  0  0  0  0  0  0  0  0
    5.6548   37.6504    7.3810 H   0  0  0  0  0  0  0  0  0  0  0  0
    6.7453   37.0776    6.0761 H   0  0  0  0  0  0  0  0  0  0  0  0
    7.3164   34.1487    8.8690 H   0  0  0  0  0  0  0  0  0  0  0  0
    6.8331   35.2850    7.5644 H   0  0  0  0  0  0  0  0  0  0  0  0
    8.4788   34.5651    7.5644 H   0  0  0  0  0  0  0  0  0  0  0  0
    9.1456   34.8631   10.3995 H   0  0  0  0  0  0  0  0  0  0  0  0
   10.2092   35.7611    9.2312 H   0  0  0  0  0  0  0  0  0  0  0  0
    9.5989   40.8690   12.1628 H   0  0  0  0  0  0  0  0  0  0  0  0
   10.9587   40.2103   13.2080 H   0  0  0  0  0  0  0  0  0  0  0  0
   10.4034   42.5904   10.7746 H   0  0  0  0  0  0  0  0  0  0  0  0
   12.1124   43.5146    9.2069 H   0  0  0  0  0  0  0  0  0  0  0  0
   14.2322   42.2541    8.7734 H   0  0  0  0  0  0  0  0  0  0  0  0
   15.6532   40.3402    9.1550 H   0  0  0  0  0  0  0  0  0  0  0  0
   16.0999   38.1428   10.2742 H   0  0  0  0  0  0  0  0  0  0  0  0
   14.4123   37.1815   11.8581 H   0  0  0  0  0  0  0  0  0  0  0  0
   12.2804   38.4041   12.3201 H   0  0  0  0  0  0  0  0  0  0  0  0
    9.9448   39.0531   14.8088 H   0  0  0  0  0  0  0  0  0  0  0  0
    9.1823   37.1311   16.2273 H   0  0  0  0  0  0  0  0  0  0  0  0
    8.6115   34.7314   12.6603 H   0  0  0  0  0  0  0  0  0  0  0  0
  1  2  1  0
  2  3  1  0
  3  4  1  0
  4  5  2  0
  4  6  1  0
  6  7  1  0
  6  8  1  0
  8  9  1  0
  9 10  2  0
 10 11  1  0
 11 12  2  0
 11 13  1  0
 10 14  1  0
 14 15  1  0
 15 16  1  0
 16 17  2  0
 17 18  1  0
 18 19  2  0
 19 20  1  0
 20 21  2  0
 21 22  1  0
 22 23  2  0
 23 24  1  0
 24 25  2  0
 14 26  1  0
 26 27  2  0
 27 28  1  0
 28 29  2  0
 29 30  1  0
 29 31  1  0
 31 32  2  0
 32  9  1  0
 25 16  1  0
 32 26  1  0
 25 20  1  0
  1 33  1  0
  1 34  1  0
  1 35  1  0
  2 36  1  0
  2 37  1  0
  7 38  1  0
  7 39  1  0
  7 40  1  0
  8 41  1  0
  8 42  1  0
 15 43  1  0
 15 44  1  0
 17 45  1  0
 18 46  1  0
 19 47  1  0
 21 48  1  0
 22 49  1  0
 23 50  1  0
 24 51  1  0
 27 52  1  0
 28 53  1  0
 31 54  1  0
M  CHG  1  13  -1
M  END
>  <meeko>  (86) 
{"free_energy": -6.77, "intermolecular_energy": -9.16, "internal_energy": -1.8, "cluster_size": 124, "cluster_id": 20, "rank_in_cluster": 5}

$$$$

     RDKit          3D

 54 57  0  0  0  0  0  0  0  0999 V2000
   11.8730   39.2890   13.4500 C   0  0  0  0  0  0  0  0  0  0  0  0
   10.8420   40.0020   14.3290 C   0  0  0  0  0  0  0  0  0  0  0  0
   11.2920   41.3200   14.5990 O   0  0  0  0  0  0  0  0  0  0  0  0
   10.4150   42.3460   14.6020 C   0  0  0  0  0  0  0  0  0  0  0  0
    9.4170   42.3830   15.3240 O   0  0  0  0  0  0  0  0  0  0  0  0
   10.8090   43.3330   13.6890 N   0  0  0  0  0  0  0  0  0  0  0  0
   10.0880   44.6030   13.5520 C   0  0  0  0  0  0  0  0  0  0  0  0
   11.9570   43.1280   12.7960 C   0  0  0  0  0  0  0  0  0  0  0  0
   11.6230   42.2270   11.6300 C   0  0  0  0  0  0  0  0  0  0  0  0
   10.3910   41.7210   11.2520 C   0  0  0  0  0  0  0  0  0  0  0  0
    9.0410   41.9440   11.8570 C   0  0  0  0  0  0  0  0  0  0  0  0
    8.5020   41.0070   12.4830 O   0  0  0  0  0  0  0  0  0  0  0  0
    8.4570   43.0410   11.7220 O   0  0  0  0  0  1  0  0  0  0  0  0
   10.5720   40.8730   10.1380 N   0  0  0  0  0  0  0  0  0  0  0  0
    9.5570   40.1250    9.3900 C   0  0  0  0  0  0  0  0  0  0  0  0
    9.5410   38.6140    9.6590 C   0  0  0  0  0  0  0  0  0  0  0  0
   10.3830   38.0440   10.6460 C   0  0  0  0  0  0  0  0  0  0  0  0
   10.3700   36.6610   10.8960 C   0  0  0  0  0  0  0  0  0  0  0  0
    9.5170   35.8220   10.1620 C   0  0  0  0  0  0  0  0  0  0  0  0
    8.6730   36.3640    9.1750 C   0  0  0  0  0  0  0  0  0  0  0  0
    7.8230   35.5070    8.4460 C   0  0  0  0  0  0  0  0  0  0  0  0
    6.9710   36.0270    7.4550 C   0  0  0  0  0  0  0  0  0  0  0  0
    6.9680   37.4080    7.1910 C   0  0  0  0  0  0  0  0  0  0  0  0
    7.8150   38.2690    7.9140 C   0  0  0  0  0  0  0  0  0  0  0  0
    8.6790   37.7620    8.9160 C   0  0  0  0  0  0  0  0  0  0  0  0
   11.9190   40.8360    9.8050 C   0  0  0  0  0  0  0  0  0  0  0  0
   12.6190   40.1400    8.7980 C   0  0  0  0  0  0  0  0  0  0  0  0
   14.0100   40.2940    8.6770 C   0  0  0  0  0  0  0  0  0  0  0  0
   14.6960   41.1440    9.5610 C   0  0  0  0  0  0  0  0  0  0  0  0
   16.0370   41.3000    9.4470 F   0  0  0  0  0  0  0  0  0  0  0  0
   13.9910   41.8330   10.5670 C   0  0  0  0  0  0  0  0  0  0  0  0
   12.5900   41.6920   10.7180 C   0  0  0  0  0  0  0  0  0  0  0  0
   12.6096   38.7796   14.0886 H   0  0  0  0  0  0  0  0  0  0  0  0
   11.3642   38.5489   12.8149 H   0  0  0  0  0  0  0  0  0  0  0  0
   12.3859   40.0263   12.8149 H   0  0  0  0  0  0  0  0  0  0  0  0
    9.8763   40.0431   13.8039 H   0  0  0  0  0  0  0  0  0  0  0  0
   10.7184   39.4525   15.2739 H   0  0  0  0  0  0  0  0  0  0  0  0
    9.8599   45.0047   14.5503 H   0  0  0  0  0  0  0  0  0  0  0  0
   10.7127   45.3218   13.0015 H   0  0  0  0  0  0  0  0  0  0  0  0
    9.1506   44.4349   13.0015 H   0  0  0  0  0  0  0  0  0  0  0  0
   12.2813   44.1045   12.4069 H   0  0  0  0  0  0  0  0  0  0  0  0
   12.7540   42.6428   13.3786 H   0  0  0  0  0  0  0  0  0  0  0  0
    8.5692   40.5300    9.6551 H   0  0  0  0  0  0  0  0  0  0  0  0
    9.8053   40.2469    8.3253 H   0  0  0  0  0  0  0  0  0  0  0  0
   11.0564   38.6932   11.2248 H   0  0  0  0  0  0  0  0  0  0  0  0
   11.0288   36.2358   11.6675 H   0  0  0  0  0  0  0  0  0  0  0  0
    9.5083   34.7397   10.3585 H   0  0  0  0  0  0  0  0  0  0  0  0
    7.8263   34.4267    8.6533 H   0  0  0  0  0  0  0  0  0  0  0  0
    6.3092   35.3554    6.8884 H   0  0  0  0  0  0  0  0  0  0  0  0
    6.3017   37.8169    6.4171 H   0  0  0  0  0  0  0  0  0  0  0  0
    7.8060   39.3477    7.6986 H   0  0  0  0  0  0  0  0  0  0  0  0
   12.0764   39.4772    8.1079 H   0  0  0  0  0  0  0  0  0  0  0  0
   14.5598   39.7516    7.8937 H   0  0  0  0  0  0  0  0  0  0  0  0
   14.5412   42.4958   11.2511 H   0  0  0  0  0  0  0  0  0  0  0  0
  1  2  1  0
  2  3  1  0
  3  4  1  0
  4  5  2  0
  4  6  1  0
  6  7  1  0
  6  8  1  0
  8  9  1  0
  9 10  2  0
 10 11  1  0
 11 12  2  0
 11 13  1  0
 10 14  1  0
 14 15  1  0
 15 16  1  0
 16 17  2  0
 17 18  1  0
 18 19  2  0
 19 20  1  0
 20 21  2  0
 21 22  1  0
 22 23  2  0
 23 24  1  0
 24 25  2  0
 14 26  1  0
 26 27  2  0
 27 28  1  0
 28 29  2  0
 29 30  1  0
 29 31  1  0
 31 32  2  0
 32  9  1  0
 25 16  1  0
 32 26  1  0
 25 20  1  0
  1 33  1  0
  1 34  1  0
  1 35  1  0
  2 36  1  0
  2 37  1  0
  7 38  1  0
  7 39  1  0
  7 40  1  0
  8 41  1  0
  8 42  1  0
 15 43  1  0
 15 44  1  0
 17 45  1  0
 18 46  1  0
 19 47  1  0
 21 48  1  0
 22 49  1  0
 23 50  1  0
 24 51  1  0
 27 52  1  0
 28 53  1  0
 31 54  1  0
M  CHG  1  13  -1
M  END
>  <meeko>  (87) 
{"free_energy": -6.02, "intermolecular_energy": -8.4, "internal_energy": -2.18, "cluster_size": 210, "cluster_id": 15, "rank_in_cluster": 88}

$$$$

     RDKit          3D

 54 57  0  0  0  0  0  0  0  0999 V2000
   12.6760   38.1240   10.9560 C   0  0  0  0  0  0  0  0  0  0  0  0
   13.1860   38.5130   12.3460 C   0  0  0  0  0  0  0  0  0  0  0  0
   12.2400   39.3680   12.9670 O   0  0  0  0  0  0  0  0  0  0  0  0
   11.8090   39.1020   14.2190 C   0  0  0  0  0  0  0  0  0  0  0  0
   12.3900   38.3330   14.9870 O   0  0  0  0  0  0  0  0  0  0  0  0
   10.6400   39.8220   14.5000 N   0  0  0  0  0  0  0  0  0  0  0  0
    9.9660   40.6400   13.4860 C   0  0  0  0  0  0  0  0  0  0  0  0
   10.0450   39.8150   15.8430 C   0  0  0  0  0  0  0  0  0  0  0  0
    9.4520   38.4720   16.1990 C   0  0  0  0  0  0  0  0  0  0  0  0
    8.9670   38.0350   17.4190 C   0  0  0  0  0  0  0  0  0  0  0  0
    8.8550   38.7670   18.7190 C   0  0  0  0  0  0  0  0  0  0  0  0
    9.7340   38.5830   19.5880 O   0  0  0  0  0  0  0  0  0  0  0  0
    7.8910   39.5330   18.9370 O   0  0  0  0  0  1  0  0  0  0  0  0
    8.5710   36.6860   17.2930 N   0  0  0  0  0  0  0  0  0  0  0  0
    7.9910   35.8090   18.3140 C   0  0  0  0  0  0  0  0  0  0  0  0
    6.8540   36.4360   19.1320 C   0  0  0  0  0  0  0  0  0  0  0  0
    7.0460   36.7880   20.4910 C   0  0  0  0  0  0  0  0  0  0  0  0
    6.0080   37.3620   21.2440 C   0  0  0  0  0  0  0  0  0  0  0  0
    4.7560   37.5940   20.6520 C   0  0  0  0  0  0  0  0  0  0  0  0
    4.5390   37.2510   19.3040 C   0  0  0  0  0  0  0  0  0  0  0  0
    3.2750   37.4890   18.7260 C   0  0  0  0  0  0  0  0  0  0  0  0
    3.0360   37.1550   17.3810 C   0  0  0  0  0  0  0  0  0  0  0  0
    4.0620   36.5800   16.6110 C   0  0  0  0  0  0  0  0  0  0  0  0
    5.3260   36.3380   17.1820 C   0  0  0  0  0  0  0  0  0  0  0  0
    5.5850   36.6700   18.5350 C   0  0  0  0  0  0  0  0  0  0  0  0
    8.8050   36.2600   15.9920 C   0  0  0  0  0  0  0  0  0  0  0  0
    8.6020   35.0150   15.3600 C   0  0  0  0  0  0  0  0  0  0  0  0
    8.9240   34.8580   14.0020 C   0  0  0  0  0  0  0  0  0  0  0  0
    9.4450   35.9460   13.2800 C   0  0  0  0  0  0  0  0  0  0  0  0
    9.7540   35.8020   11.9690 F   0  0  0  0  0  0  0  0  0  0  0  0
    9.6480   37.1840   13.9180 C   0  0  0  0  0  0  0  0  0  0  0  0
    9.3400   37.3710   15.2880 C   0  0  0  0  0  0  0  0  0  0  0  0
   11.8051   37.4597   11.0576 H   0  0  0  0  0  0  0  0  0  0  0  0
   12.3835   39.0305   10.4058 H   0  0  0  0  0  0  0  0  0  0  0  0
   13.4729   37.6022   10.4058 H   0  0  0  0  0  0  0  0  0  0  0  0
   13.3194   37.6073   12.9558 H   0  0  0  0  0  0  0  0  0  0  0  0
   14.1504   39.0339   12.2536 H   0  0  0  0  0  0  0  0  0  0  0  0
    9.3416   41.3978   13.9819 H   0  0  0  0  0  0  0  0  0  0  0  0
   10.7186   41.1390   12.8578 H   0  0  0  0  0  0  0  0  0  0  0  0
    9.3323   39.9967   12.8578 H   0  0  0  0  0  0  0  0  0  0  0  0
   10.8256   40.0631   16.5773 H   0  0  0  0  0  0  0  0  0  0  0  0
    9.2324   40.5563   15.8555 H   0  0  0  0  0  0  0  0  0  0  0  0
    7.5972   34.9131   17.8117 H   0  0  0  0  0  0  0  0  0  0  0  0
    8.7991   35.5877   19.0268 H   0  0  0  0  0  0  0  0  0  0  0  0
    8.0229   36.6091   20.9638 H   0  0  0  0  0  0  0  0  0  0  0  0
    6.1761   37.6297   22.2976 H   0  0  0  0  0  0  0  0  0  0  0  0
    3.9441   38.0441   21.2421 H   0  0  0  0  0  0  0  0  0  0  0  0
    2.4725   37.9378   19.3297 H   0  0  0  0  0  0  0  0  0  0  0  0
    2.0492   37.3431   16.9328 H   0  0  0  0  0  0  0  0  0  0  0  0
    3.8767   36.3183   15.5588 H   0  0  0  0  0  0  0  0  0  0  0  0
    6.1213   35.8862   16.5710 H   0  0  0  0  0  0  0  0  0  0  0  0
    8.1920   34.1683   15.9302 H   0  0  0  0  0  0  0  0  0  0  0  0
    8.7693   33.8886   13.5058 H   0  0  0  0  0  0  0  0  0  0  0  0
   10.0554   38.0261   13.3393 H   0  0  0  0  0  0  0  0  0  0  0  0
  1  2  1  0
  2  3  1  0
  3  4  1  0
  4  5  2  0
  4  6  1  0
  6  7  1  0
  6  8  1  0
  8  9  1  0
  9 10  2  0
 10 11  1  0
 11 12  2  0
 11 13  1  0
 10 14  1  0
 14 15  1  0
 15 16  1  0
 16 17  2  0
 17 18  1  0
 18 19  2  0
 19 20  1  0
 20 21  2  0
 21 22  1  0
 22 23  2  0
 23 24  1  0
 24 25  2  0
 14 26  1  0
 26 27  2  0
 27 28  1  0
 28 29  2  0
 29 30  1  0
 29 31  1  0
 31 32  2  0
 32  9  1  0
 25 16  1  0
 32 26  1  0
 25 20  1  0
  1 33  1  0
  1 34  1  0
  1 35  1  0
  2 36  1  0
  2 37  1  0
  7 38  1  0
  7 39  1  0
  7 40  1  0
  8 41  1  0
  8 42  1  0
 15 43  1  0
 15 44  1  0
 17 45  1  0
 18 46  1  0
 19 47  1  0
 21 48  1  0
 22 49  1  0
 23 50  1  0
 24 51  1  0
 27 52  1  0
 28 53  1  0
 31 54  1  0
M  CHG  1  13  -1
M  END
>  <meeko>  (88) 
{"free_energy": -5.76, "intermolecular_energy": -8.14, "internal_energy": -1.83, "cluster_size": 49, "cluster_id": 27, "rank_in_cluster": 17}

$$$$

     RDKit          3D

 54 57  0  0  0  0  0  0  0  0999 V2000
    6.9930   38.7820    7.1720 C   0  0  0  0  0  0  0  0  0  0  0  0
    7.9990   39.1250    8.2730 C   0  0  0  0  0  0  0  0  0  0  0  0
    8.9600   38.0860    8.3670 O   0  0  0  0  0  0  0  0  0  0  0  0
   10.0330   38.2280    9.1750 C   0  0  0  0  0  0  0  0  0  0  0  0
   11.0720   38.7910    8.8290 O   0  0  0  0  0  0  0  0  0  0  0  0
    9.7820   37.6580   10.4300 N   0  0  0  0  0  0  0  0  0  0  0  0
    8.5420   36.9300   10.7230 C   0  0  0  0  0  0  0  0  0  0  0  0
   10.7450   37.7870   11.5320 C   0  0  0  0  0  0  0  0  0  0  0  0
   10.4530   38.9810   12.4100 C   0  0  0  0  0  0  0  0  0  0  0  0
   10.3010   40.3080   12.0460 C   0  0  0  0  0  0  0  0  0  0  0  0
   10.3470   40.9360   10.6890 C   0  0  0  0  0  0  0  0  0  0  0  0
    9.2710   41.1580   10.0930 O   0  0  0  0  0  0  0  0  0  0  0  0
   11.4420   41.2150   10.1530 O   0  0  0  0  0  1  0  0  0  0  0  0
   10.1020   41.0790   13.2110 N   0  0  0  0  0  0  0  0  0  0  0  0
    9.8860   42.5240   13.3210 C   0  0  0  0  0  0  0  0  0  0  0  0
    8.4130   42.9540   13.3720 C   0  0  0  0  0  0  0  0  0  0  0  0
    7.6150   42.9500   12.2010 C   0  0  0  0  0  0  0  0  0  0  0  0
    6.2660   43.3430   12.2420 C   0  0  0  0  0  0  0  0  0  0  0  0
    5.6910   43.7490   13.4570 C   0  0  0  0  0  0  0  0  0  0  0  0
    6.4630   43.7630   14.6340 C   0  0  0  0  0  0  0  0  0  0  0  0
    5.8680   44.1750   15.8440 C   0  0  0  0  0  0  0  0  0  0  0  0
    6.6210   44.1980   17.0320 C   0  0  0  0  0  0  0  0  0  0  0  0
    7.9720   43.8070   17.0110 C   0  0  0  0  0  0  0  0  0  0  0  0
    8.5720   43.3960   15.8050 C   0  0  0  0  0  0  0  0  0  0  0  0
    7.8280   43.3670   14.6000 C   0  0  0  0  0  0  0  0  0  0  0  0
   10.1270   40.2440   14.3220 C   0  0  0  0  0  0  0  0  0  0  0  0
    9.9940   40.5100   15.7000 C   0  0  0  0  0  0  0  0  0  0  0  0
   10.0500   39.4550   16.6260 C   0  0  0  0  0  0  0  0  0  0  0  0
   10.2380   38.1390   16.1710 C   0  0  0  0  0  0  0  0  0  0  0  0
   10.2890   37.1170   17.0580 F   0  0  0  0  0  0  0  0  0  0  0  0
   10.3740   37.8810   14.7930 C   0  0  0  0  0  0  0  0  0  0  0  0
   10.3280   38.9240   13.8370 C   0  0  0  0  0  0  0  0  0  0  0  0
    6.0457   38.4590    7.6285 H   0  0  0  0  0  0  0  0  0  0  0  0
    6.8152   39.6703    6.5480 H   0  0  0  0  0  0  0  0  0  0  0  0
    7.3949   37.9701    6.5480 H   0  0  0  0  0  0  0  0  0  0  0  0
    8.5033   40.0716    8.0287 H   0  0  0  0  0  0  0  0  0  0  0  0
    7.4737   39.2305    9.2337 H   0  0  0  0  0  0  0  0  0  0  0  0
    8.4107   36.8529   11.8124 H   0  0  0  0  0  0  0  0  0  0  0  0
    7.6882   37.4702   10.2881 H   0  0  0  0  0  0  0  0  0  0  0  0
    8.5976   35.9212   10.2881 H   0  0  0  0  0  0  0  0  0  0  0  0
   10.7027   36.8763   12.1475 H   0  0  0  0  0  0  0  0  0  0  0  0
   11.7434   37.9280   11.0924 H   0  0  0  0  0  0  0  0  0  0  0  0
   10.3765   42.8740   14.2413 H   0  0  0  0  0  0  0  0  0  0  0  0
   10.3067   42.9698   12.4077 H   0  0  0  0  0  0  0  0  0  0  0  0
    8.0581   42.6344   11.2449 H   0  0  0  0  0  0  0  0  0  0  0  0
    5.6614   43.3325   11.3231 H   0  0  0  0  0  0  0  0  0  0  0  0
    4.6354   44.0567   13.4891 H   0  0  0  0  0  0  0  0  0  0  0  0
    4.8111   44.4796   15.8591 H   0  0  0  0  0  0  0  0  0  0  0  0
    6.1547   44.5208   17.9745 H   0  0  0  0  0  0  0  0  0  0  0  0
    8.5617   43.8223   17.9394 H   0  0  0  0  0  0  0  0  0  0  0  0
    9.6298   43.0943   15.7987 H   0  0  0  0  0  0  0  0  0  0  0  0
    9.8465   41.5424   16.0498 H   0  0  0  0  0  0  0  0  0  0  0  0
    9.9472   39.6582   17.7022 H   0  0  0  0  0  0  0  0  0  0  0  0
   10.5193   36.8454   14.4519 H   0  0  0  0  0  0  0  0  0  0  0  0
  1  2  1  0
  2  3  1  0
  3  4  1  0
  4  5  2  0
  4  6  1  0
  6  7  1  0
  6  8  1  0
  8  9  1  0
  9 10  2  0
 10 11  1  0
 11 12  2  0
 11 13  1  0
 10 14  1  0
 14 15  1  0
 15 16  1  0
 16 17  2  0
 17 18  1  0
 18 19  2  0
 19 20  1  0
 20 21  2  0
 21 22  1  0
 22 23  2  0
 23 24  1  0
 24 25  2  0
 14 26  1  0
 26 27  2  0
 27 28  1  0
 28 29  2  0
 29 30  1  0
 29 31  1  0
 31 32  2  0
 32  9  1  0
 25 16  1  0
 32 26  1  0
 25 20  1  0
  1 33  1  0
  1 34  1  0
  1 35  1  0
  2 36  1  0
  2 37  1  0
  7 38  1  0
  7 39  1  0
  7 40  1  0
  8 41  1  0
  8 42  1  0
 15 43  1  0
 15 44  1  0
 17 45  1  0
 18 46  1  0
 19 47  1  0
 21 48  1  0
 22 49  1  0
 23 50  1  0
 24 51  1  0
 27 52  1  0
 28 53  1  0
 31 54  1  0
M  CHG  1  13  -1
M  END
>  <meeko>  (89) 
{"free_energy": -5.01, "intermolecular_energy": -7.4, "internal_energy": -1.9, "cluster_size": 86, "cluster_id": 25, "rank_in_cluster": 62}

$$$$

     RDKit          3D

 54 57  0  0  0  0  0  0  0  0999 V2000
   17.0630   40.8040    5.8350 C   0  0  0  0  0  0  0  0  0  0  0  0
   16.2850   40.3310    7.0650 C   0  0  0  0  0  0  0  0  0  0  0  0
   15.3210   41.3120    7.4140 O   0  0  0  0  0  0  0  0  0  0  0  0
   14.1370   40.9380    7.9450 C   0  0  0  0  0  0  0  0  0  0  0  0
   13.2720   40.3320    7.3110 O   0  0  0  0  0  0  0  0  0  0  0  0
   14.0540   41.3310    9.2870 N   0  0  0  0  0  0  0  0  0  0  0  0
   15.1150   41.0300   10.2550 C   0  0  0  0  0  0  0  0  0  0  0  0
   12.8780   42.0440    9.8010 C   0  0  0  0  0  0  0  0  0  0  0  0
   12.0540   41.1900   10.7360 C   0  0  0  0  0  0  0  0  0  0  0  0
   11.8900   39.8160   10.7360 C   0  0  0  0  0  0  0  0  0  0  0  0
   12.4990   38.7820    9.8430 C   0  0  0  0  0  0  0  0  0  0  0  0
   11.8330   38.3570    8.8750 O   0  0  0  0  0  0  0  0  0  0  0  0
   13.6460   38.3390   10.0720 O   0  0  0  0  0  1  0  0  0  0  0  0
   10.9780   39.4680   11.7560 N   0  0  0  0  0  0  0  0  0  0  0  0
   10.5060   38.1340   12.1390 C   0  0  0  0  0  0  0  0  0  0  0  0
    9.9220   37.3020   10.9890 C   0  0  0  0  0  0  0  0  0  0  0  0
   10.1450   35.9040   10.9190 C   0  0  0  0  0  0  0  0  0  0  0  0
    9.6120   35.1380    9.8670 C   0  0  0  0  0  0  0  0  0  0  0  0
    8.8480   35.7570    8.8650 C   0  0  0  0  0  0  0  0  0  0  0  0
    8.6150   37.1450    8.9110 C   0  0  0  0  0  0  0  0  0  0  0  0
    7.8460   37.7490    7.8950 C   0  0  0  0  0  0  0  0  0  0  0  0
    7.6000   39.1340    7.9210 C   0  0  0  0  0  0  0  0  0  0  0  0
    8.1230   39.9170    8.9650 C   0  0  0  0  0  0  0  0  0  0  0  0
    8.8930   39.3200    9.9820 C   0  0  0  0  0  0  0  0  0  0  0  0
    9.1500   37.9260    9.9720 C   0  0  0  0  0  0  0  0  0  0  0  0
   10.5590   40.6200   12.4090 C   0  0  0  0  0  0  0  0  0  0  0  0
    9.6570   40.8220   13.4730 C   0  0  0  0  0  0  0  0  0  0  0  0
    9.4190   42.1200   13.9530 C   0  0  0  0  0  0  0  0  0  0  0  0
   10.0840   43.2120   13.3700 C   0  0  0  0  0  0  0  0  0  0  0  0
    9.8620   44.4660   13.8310 F   0  0  0  0  0  0  0  0  0  0  0  0
   10.9820   43.0030   12.3040 C   0  0  0  0  0  0  0  0  0  0  0  0
   11.2370   41.7070   11.7940 C   0  0  0  0  0  0  0  0  0  0  0  0
   17.9617   41.3504    6.1573 H   0  0  0  0  0  0  0  0  0  0  0  0
   17.3599   39.9334    5.2318 H   0  0  0  0  0  0  0  0  0  0  0  0
   16.4267   41.4683    5.2318 H   0  0  0  0  0  0  0  0  0  0  0  0
   15.7779   39.3819    6.8368 H   0  0  0  0  0  0  0  0  0  0  0  0
   16.9788   40.1799    7.9051 H   0  0  0  0  0  0  0  0  0  0  0  0
   14.7220   41.1415   11.2763 H   0  0  0  0  0  0  0  0  0  0  0  0
   15.4641   39.9974   10.1072 H   0  0  0  0  0  0  0  0  0  0  0  0
   15.9543   41.7255   10.1072 H   0  0  0  0  0  0  0  0  0  0  0  0
   13.2161   42.9387   10.3443 H   0  0  0  0  0  0  0  0  0  0  0  0
   12.2444   42.3114    8.9425 H   0  0  0  0  0  0  0  0  0  0  0  0
   11.3554   37.5799   12.5649 H   0  0  0  0  0  0  0  0  0  0  0  0
    9.6859   38.2901   12.8552 H   0  0  0  0  0  0  0  0  0  0  0  0
   10.7438   35.4110   11.6990 H   0  0  0  0  0  0  0  0  0  0  0  0
    9.7937   34.0538    9.8292 H   0  0  0  0  0  0  0  0  0  0  0  0
    8.4308   35.1570    8.0429 H   0  0  0  0  0  0  0  0  0  0  0  0
    7.4369   37.1350    7.0791 H   0  0  0  0  0  0  0  0  0  0  0  0
    7.0003   39.6028    7.1269 H   0  0  0  0  0  0  0  0  0  0  0  0
    7.9301   40.9997    8.9876 H   0  0  0  0  0  0  0  0  0  0  0  0
    9.2994   39.9423   10.7929 H   0  0  0  0  0  0  0  0  0  0  0  0
    9.1400   39.9637   13.9269 H   0  0  0  0  0  0  0  0  0  0  0  0
    8.7146   42.2814   14.7823 H   0  0  0  0  0  0  0  0  0  0  0  0
   11.4967   43.8668   11.8579 H   0  0  0  0  0  0  0  0  0  0  0  0
  1  2  1  0
  2  3  1  0
  3  4  1  0
  4  5  2  0
  4  6  1  0
  6  7  1  0
  6  8  1  0
  8  9  1  0
  9 10  2  0
 10 11  1  0
 11 12  2  0
 11 13  1  0
 10 14  1  0
 14 15  1  0
 15 16  1  0
 16 17  2  0
 17 18  1  0
 18 19  2  0
 19 20  1  0
 20 21  2  0
 21 22  1  0
 22 23  2  0
 23 24  1  0
 24 25  2  0
 14 26  1  0
 26 27  2  0
 27 28  1  0
 28 29  2  0
 29 30  1  0
 29 31  1  0
 31 32  2  0
 32  9  1  0
 25 16  1  0
 32 26  1  0
 25 20  1  0
  1 33  1  0
  1 34  1  0
  1 35  1  0
  2 36  1  0
  2 37  1  0
  7 38  1  0
  7 39  1  0
  7 40  1  0
  8 41  1  0
  8 42  1  0
 15 43  1  0
 15 44  1  0
 17 45  1  0
 18 46  1  0
 19 47  1  0
 21 48  1  0
 22 49  1  0
 23 50  1  0
 24 51  1  0
 27 52  1  0
 28 53  1  0
 31 54  1  0
M  CHG  1  13  -1
M  END
>  <meeko>  (90) 
{"free_energy": -5.19, "intermolecular_energy": -7.57, "internal_energy": -1.83, "cluster_size": 61, "cluster_id": 70, "rank_in_cluster": 32}

$$$$

     RDKit          3D

 54 57  0  0  0  0  0  0  0  0999 V2000
    7.9760   39.0920   10.2040 C   0  0  0  0  0  0  0  0  0  0  0  0
    8.4130   38.5820    8.8280 C   0  0  0  0  0  0  0  0  0  0  0  0
    7.5970   37.4840    8.4550 O   0  0  0  0  0  0  0  0  0  0  0  0
    8.1340   36.2500    8.3410 C   0  0  0  0  0  0  0  0  0  0  0  0
    8.2240   35.6470    7.2710 O   0  0  0  0  0  0  0  0  0  0  0  0
    8.5640   35.7840    9.5900 N   0  0  0  0  0  0  0  0  0  0  0  0
    7.6260   35.2920   10.6050 C   0  0  0  0  0  0  0  0  0  0  0  0
    9.9870   35.7920    9.9570 C   0  0  0  0  0  0  0  0  0  0  0  0
   10.2780   36.7440   11.0940 C   0  0  0  0  0  0  0  0  0  0  0  0
   10.9860   37.9320   11.0690 C   0  0  0  0  0  0  0  0  0  0  0  0
   11.6330   38.6340    9.9170 C   0  0  0  0  0  0  0  0  0  0  0  0
   12.5560   39.4440   10.1480 O   0  0  0  0  0  0  0  0  0  0  0  0
   11.2430   38.4280    8.7460 O   0  0  0  0  0  1  0  0  0  0  0  0
   11.0570   38.4470   12.3820 N   0  0  0  0  0  0  0  0  0  0  0  0
   11.6940   39.6830   12.8420 C   0  0  0  0  0  0  0  0  0  0  0  0
   13.1230   39.5130   13.3740 C   0  0  0  0  0  0  0  0  0  0  0  0
   14.2160   39.3560   12.4850 C   0  0  0  0  0  0  0  0  0  0  0  0
   15.5260   39.2000   12.9680 C   0  0  0  0  0  0  0  0  0  0  0  0
   15.7690   39.1940   14.3510 C   0  0  0  0  0  0  0  0  0  0  0  0
   14.7000   39.3460   15.2550 C   0  0  0  0  0  0  0  0  0  0  0  0
   14.9620   39.3380   16.6410 C   0  0  0  0  0  0  0  0  0  0  0  0
   13.9100   39.4870   17.5620 C   0  0  0  0  0  0  0  0  0  0  0  0
   12.5920   39.6460   17.0980 C   0  0  0  0  0  0  0  0  0  0  0  0
   12.3240   39.6550   15.7160 C   0  0  0  0  0  0  0  0  0  0  0  0
   13.3720   39.5060   14.7740 C   0  0  0  0  0  0  0  0  0  0  0  0
   10.3930   37.5860   13.2470 C   0  0  0  0  0  0  0  0  0  0  0  0
   10.1870   37.6300   14.6410 C   0  0  0  0  0  0  0  0  0  0  0  0
    9.4560   36.6100   15.2740 C   0  0  0  0  0  0  0  0  0  0  0  0
    8.9330   35.5520   14.5110 C   0  0  0  0  0  0  0  0  0  0  0  0
    8.2240   34.5680   15.1140 F   0  0  0  0  0  0  0  0  0  0  0  0
    9.1460   35.5130   13.1190 C   0  0  0  0  0  0  0  0  0  0  0  0
    9.8840   36.5220   12.4540 C   0  0  0  0  0  0  0  0  0  0  0  0
    8.4778   38.5064   10.9884 H   0  0  0  0  0  0  0  0  0  0  0  0
    8.2502   40.1524   10.3061 H   0  0  0  0  0  0  0  0  0  0  0  0
    6.8861   38.9836   10.3061 H   0  0  0  0  0  0  0  0  0  0  0  0
    8.3066   39.3876    8.0866 H   0  0  0  0  0  0  0  0  0  0  0  0
    9.4647   38.2623    8.8702 H   0  0  0  0  0  0  0  0  0  0  0  0
    8.0270   35.5023   11.6075 H   0  0  0  0  0  0  0  0  0  0  0  0
    6.6566   35.7978   10.4843 H   0  0  0  0  0  0  0  0  0  0  0  0
    7.4910   34.2070   10.4843 H   0  0  0  0  0  0  0  0  0  0  0  0
   10.2800   34.7764   10.2615 H   0  0  0  0  0  0  0  0  0  0  0  0
   10.5600   36.1280    9.0802 H   0  0  0  0  0  0  0  0  0  0  0  0
   11.7253   40.3865   11.9969 H   0  0  0  0  0  0  0  0  0  0  0  0
   11.0907   40.0453   13.6875 H   0  0  0  0  0  0  0  0  0  0  0  0
   14.0356   39.3563   11.3999 H   0  0  0  0  0  0  0  0  0  0  0  0
   16.3617   39.0825   12.2625 H   0  0  0  0  0  0  0  0  0  0  0  0
   16.7948   39.0705   14.7284 H   0  0  0  0  0  0  0  0  0  0  0  0
   15.9935   39.2147   17.0028 H   0  0  0  0  0  0  0  0  0  0  0  0
   14.1173   39.4792   18.6423 H   0  0  0  0  0  0  0  0  0  0  0  0
   11.7680   39.7637   17.8171 H   0  0  0  0  0  0  0  0  0  0  0  0
   11.2894   39.7791   15.3635 H   0  0  0  0  0  0  0  0  0  0  0  0
   10.5978   38.4615   15.2325 H   0  0  0  0  0  0  0  0  0  0  0  0
    9.2940   36.6397   16.3616 H   0  0  0  0  0  0  0  0  0  0  0  0
    8.7292   34.6792   12.5350 H   0  0  0  0  0  0  0  0  0  0  0  0
  1  2  1  0
  2  3  1  0
  3  4  1  0
  4  5  2  0
  4  6  1  0
  6  7  1  0
  6  8  1  0
  8  9  1  0
  9 10  2  0
 10 11  1  0
 11 12  2  0
 11 13  1  0
 10 14  1  0
 14 15  1  0
 15 16  1  0
 16 17  2  0
 17 18  1  0
 18 19  2  0
 19 20  1  0
 20 21  2  0
 21 22  1  0
 22 23  2  0
 23 24  1  0
 24 25  2  0
 14 26  1  0
 26 27  2  0
 27 28  1  0
 28 29  2  0
 29 30  1  0
 29 31  1  0
 31 32  2  0
 32  9  1  0
 25 16  1  0
 32 26  1  0
 25 20  1  0
  1 33  1  0
  1 34  1  0
  1 35  1  0
  2 36  1  0
  2 37  1  0
  7 38  1  0
  7 39  1  0
  7 40  1  0
  8 41  1  0
  8 42  1  0
 15 43  1  0
 15 44  1  0
 17 45  1  0
 18 46  1  0
 19 47  1  0
 21 48  1  0
 22 49  1  0
 23 50  1  0
 24 51  1  0
 27 52  1  0
 28 53  1  0
 31 54  1  0
M  CHG  1  13  -1
M  END
>  <meeko>  (91) 
{"free_energy": -4.69, "intermolecular_energy": -7.08, "internal_energy": -1.9, "cluster_size": 51, "cluster_id": 80, "rank_in_cluster": 37}

$$$$

     RDKit          3D

 54 57  0  0  0  0  0  0  0  0999 V2000
   13.2870   35.3740   17.0030 C   0  0  0  0  0  0  0  0  0  0  0  0
   11.9640   35.6420   16.2820 C   0  0  0  0  0  0  0  0  0  0  0  0
   11.2260   34.4340   16.1950 O   0  0  0  0  0  0  0  0  0  0  0  0
   10.5010   34.1630   15.0890 C   0  0  0  0  0  0  0  0  0  0  0  0
   11.0030   33.8320   14.0140 O   0  0  0  0  0  0  0  0  0  0  0  0
    9.1320   34.3060   15.3510 N   0  0  0  0  0  0  0  0  0  0  0  0
    8.1830   33.2020   15.1680 C   0  0  0  0  0  0  0  0  0  0  0  0
    8.5720   35.5880   15.7990 C   0  0  0  0  0  0  0  0  0  0  0  0
    9.0900   36.7530   14.9880 C   0  0  0  0  0  0  0  0  0  0  0  0
    9.5720   37.9710   15.4320 C   0  0  0  0  0  0  0  0  0  0  0  0
    9.7530   38.4740   16.8300 C   0  0  0  0  0  0  0  0  0  0  0  0
   10.8960   38.4480   17.3340 O   0  0  0  0  0  0  0  0  0  0  0  0
    8.7750   38.8930   17.4860 O   0  0  0  0  0  1  0  0  0  0  0  0
    9.8830   38.7720   14.3120 N   0  0  0  0  0  0  0  0  0  0  0  0
   10.4300   40.1320   14.2890 C   0  0  0  0  0  0  0  0  0  0  0  0
   11.7370   40.2880   13.4990 C   0  0  0  0  0  0  0  0  0  0  0  0
   11.7530   40.9460   12.2440 C   0  0  0  0  0  0  0  0  0  0  0  0
   12.9470   41.0910   11.5180 C   0  0  0  0  0  0  0  0  0  0  0  0
   14.1490   40.5790   12.0330 C   0  0  0  0  0  0  0  0  0  0  0  0
   14.1590   39.9200   13.2770 C   0  0  0  0  0  0  0  0  0  0  0  0
   15.3750   39.4110   13.7790 C   0  0  0  0  0  0  0  0  0  0  0  0
   15.4080   38.7490   15.0190 C   0  0  0  0  0  0  0  0  0  0  0  0
   14.2240   38.5940   15.7610 C   0  0  0  0  0  0  0  0  0  0  0  0
   13.0060   39.0990   15.2650 C   0  0  0  0  0  0  0  0  0  0  0  0
   12.9550   39.7690   14.0180 C   0  0  0  0  0  0  0  0  0  0  0  0
    9.5990   38.0650   13.1510 C   0  0  0  0  0  0  0  0  0  0  0  0
    9.7150   38.4100   11.7880 C   0  0  0  0  0  0  0  0  0  0  0  0
    9.3580   37.4810   10.7970 C   0  0  0  0  0  0  0  0  0  0  0  0
    8.8890   36.2100   11.1710 C   0  0  0  0  0  0  0  0  0  0  0  0
    8.5460   35.3080   10.2210 F   0  0  0  0  0  0  0  0  0  0  0  0
    8.7730   35.8730   12.5340 C   0  0  0  0  0  0  0  0  0  0  0  0
    9.1180   36.7910   13.5550 C   0  0  0  0  0  0  0  0  0  0  0  0
   13.1251   35.4068   18.0905 H   0  0  0  0  0  0  0  0  0  0  0  0
   13.6651   34.3810   16.7184 H   0  0  0  0  0  0  0  0  0  0  0  0
   14.0217   36.1416   16.7184 H   0  0  0  0  0  0  0  0  0  0  0  0
   11.3833   36.3880   16.8444 H   0  0  0  0  0  0  0  0  0  0  0  0
   12.1658   36.0249   15.2707 H   0  0  0  0  0  0  0  0  0  0  0  0
    7.8615   32.8280   16.1513 H   0  0  0  0  0  0  0  0  0  0  0  0
    7.3069   33.5606   14.6078 H   0  0  0  0  0  0  0  0  0  0  0  0
    8.6691   32.3897   14.6078 H   0  0  0  0  0  0  0  0  0  0  0  0
    7.4769   35.5489   15.7030 H   0  0  0  0  0  0  0  0  0  0  0  0
    8.8775   35.7425   16.8444 H   0  0  0  0  0  0  0  0  0  0  0  0
    9.6771   40.7959   13.8391 H   0  0  0  0  0  0  0  0  0  0  0  0
   10.6669   40.3877   15.3323 H   0  0  0  0  0  0  0  0  0  0  0  0
   10.8162   41.3494   11.8320 H   0  0  0  0  0  0  0  0  0  0  0  0
   12.9404   41.6057   10.5459 H   0  0  0  0  0  0  0  0  0  0  0  0
   15.0834   40.6930   11.4639 H   0  0  0  0  0  0  0  0  0  0  0  0
   16.3011   39.5325   13.1980 H   0  0  0  0  0  0  0  0  0  0  0  0
   16.3580   38.3533   15.4076 H   0  0  0  0  0  0  0  0  0  0  0  0
   14.2487   38.0770   16.7316 H   0  0  0  0  0  0  0  0  0  0  0  0
   12.0847   38.9717   15.8523 H   0  0  0  0  0  0  0  0  0  0  0  0
   10.0847   39.4057   11.5017 H   0  0  0  0  0  0  0  0  0  0  0  0
    9.4451   37.7469    9.7332 H   0  0  0  0  0  0  0  0  0  0  0  0
    8.4060   34.8738   12.8112 H   0  0  0  0  0  0  0  0  0  0  0  0
  1  2  1  0
  2  3  1  0
  3  4  1  0
  4  5  2  0
  4  6  1  0
  6  7  1  0
  6  8  1  0
  8  9  1  0
  9 10  2  0
 10 11  1  0
 11 12  2  0
 11 13  1  0
 10 14  1  0
 14 15  1  0
 15 16  1  0
 16 17  2  0
 17 18  1  0
 18 19  2  0
 19 20  1  0
 20 21  2  0
 21 22  1  0
 22 23  2  0
 23 24  1  0
 24 25  2  0
 14 26  1  0
 26 27  2  0
 27 28  1  0
 28 29  2  0
 29 30  1  0
 29 31  1  0
 31 32  2  0
 32  9  1  0
 25 16  1  0
 32 26  1  0
 25 20  1  0
  1 33  1  0
  1 34  1  0
  1 35  1  0
  2 36  1  0
  2 37  1  0
  7 38  1  0
  7 39  1  0
  7 40  1  0
  8 41  1  0
  8 42  1  0
 15 43  1  0
 15 44  1  0
 17 45  1  0
 18 46  1  0
 19 47  1  0
 21 48  1  0
 22 49  1  0
 23 50  1  0
 24 51  1  0
 27 52  1  0
 28 53  1  0
 31 54  1  0
M  CHG  1  13  -1
M  END
>  <meeko>  (92) 
{"free_energy": -4.28, "intermolecular_energy": -6.66, "internal_energy": -2.61, "cluster_size": 84, "cluster_id": 58, "rank_in_cluster": 78}

$$$$

     RDKit          3D

 54 57  0  0  0  0  0  0  0  0999 V2000
   14.3430   41.5580   15.5370 C   0  0  0  0  0  0  0  0  0  0  0  0
   14.1360   40.2120   14.8380 C   0  0  0  0  0  0  0  0  0  0  0  0
   12.7470   39.9470   14.7360 O   0  0  0  0  0  0  0  0  0  0  0  0
   12.3130   38.8530   14.0740 C   0  0  0  0  0  0  0  0  0  0  0  0
   12.8070   38.4600   13.0160 O   0  0  0  0  0  0  0  0  0  0  0  0
   11.2530   38.2500   14.7630 N   0  0  0  0  0  0  0  0  0  0  0  0
   11.4580   37.1220   15.6790 C   0  0  0  0  0  0  0  0  0  0  0  0
    9.8680   38.7030   14.5780 C   0  0  0  0  0  0  0  0  0  0  0  0
    9.7680   39.8520   13.6020 C   0  0  0  0  0  0  0  0  0  0  0  0
    9.7580   41.2110   13.8610 C   0  0  0  0  0  0  0  0  0  0  0  0
    9.8780   41.9350   15.1660 C   0  0  0  0  0  0  0  0  0  0  0  0
    8.8440   42.1340   15.8380 O   0  0  0  0  0  0  0  0  0  0  0  0
   10.9890   42.3480   15.5650 O   0  0  0  0  0  1  0  0  0  0  0  0
    9.5840   41.9050   12.6440 N   0  0  0  0  0  0  0  0  0  0  0  0
    9.5210   43.3520   12.4220 C   0  0  0  0  0  0  0  0  0  0  0  0
    8.9200   44.1570   13.5820 C   0  0  0  0  0  0  0  0  0  0  0  0
    9.7450   44.9500   14.4190 C   0  0  0  0  0  0  0  0  0  0  0  0
    9.1990   45.6900   15.4820 C   0  0  0  0  0  0  0  0  0  0  0  0
    7.8170   45.6480   15.7300 C   0  0  0  0  0  0  0  0  0  0  0  0
    6.9780   44.8660   14.9140 C   0  0  0  0  0  0  0  0  0  0  0  0
    5.5930   44.8360   15.1780 C   0  0  0  0  0  0  0  0  0  0  0  0
    4.7350   44.0620   14.3760 C   0  0  0  0  0  0  0  0  0  0  0  0
    5.2620   43.3160   13.3060 C   0  0  0  0  0  0  0  0  0  0  0  0
    6.6440   43.3420   13.0380 C   0  0  0  0  0  0  0  0  0  0  0  0
    7.5220   44.1160   13.8360 C   0  0  0  0  0  0  0  0  0  0  0  0
    9.4810   40.9880   11.6060 C   0  0  0  0  0  0  0  0  0  0  0  0
    9.2870   41.1570   10.2200 C   0  0  0  0  0  0  0  0  0  0  0  0
    9.2290   40.0330    9.3780 C   0  0  0  0  0  0  0  0  0  0  0  0
    9.3660   38.7460    9.9250 C   0  0  0  0  0  0  0  0  0  0  0  0
    9.3150   37.6580    9.1190 F   0  0  0  0  0  0  0  0  0  0  0  0
    9.5560   38.5850   11.3120 C   0  0  0  0  0  0  0  0  0  0  0  0
    9.6120   39.6980   12.1850 C   0  0  0  0  0  0  0  0  0  0  0  0
   14.3206   41.4123   16.6271 H   0  0  0  0  0  0  0  0  0  0  0  0
   15.3163   41.9779   15.2431 H   0  0  0  0  0  0  0  0  0  0  0  0
   13.5409   42.2510   15.2431 H   0  0  0  0  0  0  0  0  0  0  0  0
   14.5782   40.2486   13.8315 H   0  0  0  0  0  0  0  0  0  0  0  0
   14.6219   39.4152   15.4203 H   0  0  0  0  0  0  0  0  0  0  0  0
   11.3935   37.4771   16.7181 H   0  0  0  0  0  0  0  0  0  0  0  0
   10.6834   36.3611   15.5028 H   0  0  0  0  0  0  0  0  0  0  0  0
   12.4508   36.6823   15.5028 H   0  0  0  0  0  0  0  0  0  0  0  0
    9.2683   37.8626   14.1983 H   0  0  0  0  0  0  0  0  0  0  0  0
    9.4950   39.0539   15.5515 H   0  0  0  0  0  0  0  0  0  0  0  0
   10.5442   43.7160   12.2473 H   0  0  0  0  0  0  0  0  0  0  0  0
    8.8526   43.5038   11.5616 H   0  0  0  0  0  0  0  0  0  0  0  0
   10.8287   44.9867   14.2337 H   0  0  0  0  0  0  0  0  0  0  0  0
    9.8539   46.3020   16.1197 H   0  0  0  0  0  0  0  0  0  0  0  0
    7.3901   46.2266   16.5625 H   0  0  0  0  0  0  0  0  0  0  0  0
    5.1820   45.4203   16.0145 H   0  0  0  0  0  0  0  0  0  0  0  0
    3.6552   44.0401   14.5848 H   0  0  0  0  0  0  0  0  0  0  0  0
    4.5926   42.7108   12.6771 H   0  0  0  0  0  0  0  0  0  0  0  0
    7.0465   42.7547   12.1995 H   0  0  0  0  0  0  0  0  0  0  0  0
    9.1811   42.1673    9.7979 H   0  0  0  0  0  0  0  0  0  0  0  0
    9.0771   40.1603    8.2960 H   0  0  0  0  0  0  0  0  0  0  0  0
    9.6632   37.5714   11.7257 H   0  0  0  0  0  0  0  0  0  0  0  0
  1  2  1  0
  2  3  1  0
  3  4  1  0
  4  5  2  0
  4  6  1  0
  6  7  1  0
  6  8  1  0
  8  9  1  0
  9 10  2  0
 10 11  1  0
 11 12  2  0
 11 13  1  0
 10 14  1  0
 14 15  1  0
 15 16  1  0
 16 17  2  0
 17 18  1  0
 18 19  2  0
 19 20  1  0
 20 21  2  0
 21 22  1  0
 22 23  2  0
 23 24  1  0
 24 25  2  0
 14 26  1  0
 26 27  2  0
 27 28  1  0
 28 29  2  0
 29 30  1  0
 29 31  1  0
 31 32  2  0
 32  9  1  0
 25 16  1  0
 32 26  1  0
 25 20  1  0
  1 33  1  0
  1 34  1  0
  1 35  1  0
  2 36  1  0
  2 37  1  0
  7 38  1  0
  7 39  1  0
  7 40  1  0
  8 41  1  0
  8 42  1  0
 15 43  1  0
 15 44  1  0
 17 45  1  0
 18 46  1  0
 19 47  1  0
 21 48  1  0
 22 49  1  0
 23 50  1  0
 24 51  1  0
 27 52  1  0
 28 53  1  0
 31 54  1  0
M  CHG  1  13  -1
M  END
>  <meeko>  (93) 
{"free_energy": -4.57, "intermolecular_energy": -6.96, "internal_energy": -1.97, "cluster_size": 13, "cluster_id": 159, "rank_in_cluster": 12}

$$$$

     RDKit          3D

 54 57  0  0  0  0  0  0  0  0999 V2000
    9.0130   34.5570   15.2350 C   0  0  0  0  0  0  0  0  0  0  0  0
    8.6620   35.7980   14.4120 C   0  0  0  0  0  0  0  0  0  0  0  0
    9.4280   35.7990   13.2180 O   0  0  0  0  0  0  0  0  0  0  0  0
    8.8530   36.1410   12.0450 C   0  0  0  0  0  0  0  0  0  0  0  0
    7.9680   35.4750   11.5060 O   0  0  0  0  0  0  0  0  0  0  0  0
    9.4010   37.3350   11.5590 N   0  0  0  0  0  0  0  0  0  0  0  0
    8.7910   38.0790   10.4510 C   0  0  0  0  0  0  0  0  0  0  0  0
   10.6400   37.8890   12.1200 C   0  0  0  0  0  0  0  0  0  0  0  0
   10.9040   39.2980   11.6430 C   0  0  0  0  0  0  0  0  0  0  0  0
   11.6410   39.7190   10.5510 C   0  0  0  0  0  0  0  0  0  0  0  0
   12.3560   38.9120    9.5130 C   0  0  0  0  0  0  0  0  0  0  0  0
   11.8690   38.8450    8.3640 O   0  0  0  0  0  0  0  0  0  0  0  0
   13.4090   38.3010    9.7960 O   0  0  0  0  0  1  0  0  0  0  0  0
   11.6650   41.1300   10.5360 N   0  0  0  0  0  0  0  0  0  0  0  0
   12.3120   42.0200    9.5670 C   0  0  0  0  0  0  0  0  0  0  0  0
   13.6920   41.5540    9.0850 C   0  0  0  0  0  0  0  0  0  0  0  0
   14.6780   41.1280   10.0100 C   0  0  0  0  0  0  0  0  0  0  0  0
   15.9440   40.7000    9.5730 C   0  0  0  0  0  0  0  0  0  0  0  0
   16.2480   40.6930    8.2020 C   0  0  0  0  0  0  0  0  0  0  0  0
   15.2870   41.1140    7.2640 C   0  0  0  0  0  0  0  0  0  0  0  0
   15.6100   41.1010    5.8910 C   0  0  0  0  0  0  0  0  0  0  0  0
   14.6650   41.5170    4.9360 C   0  0  0  0  0  0  0  0  0  0  0  0
   13.3930   41.9470    5.3530 C   0  0  0  0  0  0  0  0  0  0  0  0
   13.0640   41.9630    6.7220 C   0  0  0  0  0  0  0  0  0  0  0  0
   14.0040   41.5470    7.6980 C   0  0  0  0  0  0  0  0  0  0  0  0
   10.9430   41.6120   11.6200 C   0  0  0  0  0  0  0  0  0  0  0  0
   10.6760   42.9240   12.0630 C   0  0  0  0  0  0  0  0  0  0  0  0
    9.8920   43.1300   13.2110 C   0  0  0  0  0  0  0  0  0  0  0  0
    9.3780   42.0250   13.9100 C   0  0  0  0  0  0  0  0  0  0  0  0
    8.6190   42.2160   15.0150 F   0  0  0  0  0  0  0  0  0  0  0  0
    9.6520   40.7170   13.4640 C   0  0  0  0  0  0  0  0  0  0  0  0
   10.4440   40.4780   12.3150 C   0  0  0  0  0  0  0  0  0  0  0  0
    8.9453   34.7964   16.3065 H   0  0  0  0  0  0  0  0  0  0  0  0
    8.3088   33.7467   14.9951 H   0  0  0  0  0  0  0  0  0  0  0  0
   10.0373   34.2356   14.9951 H   0  0  0  0  0  0  0  0  0  0  0  0
    7.5910   35.7825   14.1618 H   0  0  0  0  0  0  0  0  0  0  0  0
    8.8863   36.7033   14.9952 H   0  0  0  0  0  0  0  0  0  0  0  0
    8.1421   38.8705   10.8541 H   0  0  0  0  0  0  0  0  0  0  0  0
    9.5814   38.5316    9.8342 H   0  0  0  0  0  0  0  0  0  0  0  0
    8.1923   37.3927    9.8342 H   0  0  0  0  0  0  0  0  0  0  0  0
   10.5598   37.8959   13.2171 H   0  0  0  0  0  0  0  0  0  0  0  0
   11.4748   37.2570   11.7829 H   0  0  0  0  0  0  0  0  0  0  0  0
   11.6543   42.1060    8.6894 H   0  0  0  0  0  0  0  0  0  0  0  0
   12.4725   42.9768   10.0853 H   0  0  0  0  0  0  0  0  0  0  0  0
   14.4492   41.1323   11.0859 H   0  0  0  0  0  0  0  0  0  0  0  0
   16.6962   40.3707   10.3049 H   0  0  0  0  0  0  0  0  0  0  0  0
   17.2386   40.3580    7.8608 H   0  0  0  0  0  0  0  0  0  0  0  0
   16.6053   40.7640    5.5658 H   0  0  0  0  0  0  0  0  0  0  0  0
   14.9203   41.5060    3.8661 H   0  0  0  0  0  0  0  0  0  0  0  0
   12.6524   42.2720    4.6074 H   0  0  0  0  0  0  0  0  0  0  0  0
   12.0663   42.3021    7.0376 H   0  0  0  0  0  0  0  0  0  0  0  0
   11.0808   43.7849   11.5107 H   0  0  0  0  0  0  0  0  0  0  0  0
    9.6818   44.1516   13.5606 H   0  0  0  0  0  0  0  0  0  0  0  0
    9.2413   39.8620   14.0211 H   0  0  0  0  0  0  0  0  0  0  0  0
  1  2  1  0
  2  3  1  0
  3  4  1  0
  4  5  2  0
  4  6  1  0
  6  7  1  0
  6  8  1  0
  8  9  1  0
  9 10  2  0
 10 11  1  0
 11 12  2  0
 11 13  1  0
 10 14  1  0
 14 15  1  0
 15 16  1  0
 16 17  2  0
 17 18  1  0
 18 19  2  0
 19 20  1  0
 20 21  2  0
 21 22  1  0
 22 23  2  0
 23 24  1  0
 24 25  2  0
 14 26  1  0
 26 27  2  0
 27 28  1  0
 28 29  2  0
 29 30  1  0
 29 31  1  0
 31 32  2  0
 32  9  1  0
 25 16  1  0
 32 26  1  0
 25 20  1  0
  1 33  1  0
  1 34  1  0
  1 35  1  0
  2 36  1  0
  2 37  1  0
  7 38  1  0
  7 39  1  0
  7 40  1  0
  8 41  1  0
  8 42  1  0
 15 43  1  0
 15 44  1  0
 17 45  1  0
 18 46  1  0
 19 47  1  0
 21 48  1  0
 22 49  1  0
 23 50  1  0
 24 51  1  0
 27 52  1  0
 28 53  1  0
 31 54  1  0
M  CHG  1  13  -1
M  END
>  <meeko>  (94) 
{"free_energy": -4.82, "intermolecular_energy": -7.21, "internal_energy": -1.65, "cluster_size": 4, "cluster_id": 201, "rank_in_cluster": 2}

$$$$

     RDKit          3D

 54 57  0  0  0  0  0  0  0  0999 V2000
    6.7900   34.6960    6.1150 C   0  0  0  0  0  0  0  0  0  0  0  0
    7.7260   35.1120    7.2520 C   0  0  0  0  0  0  0  0  0  0  0  0
    7.1750   36.2320    7.9260 O   0  0  0  0  0  0  0  0  0  0  0  0
    7.9890   37.1640    8.4670 C   0  0  0  0  0  0  0  0  0  0  0  0
    8.2750   38.2220    7.9060 O   0  0  0  0  0  0  0  0  0  0  0  0
    8.4350   36.7520    9.7300 N   0  0  0  0  0  0  0  0  0  0  0  0
    9.1660   35.4950    9.9270 C   0  0  0  0  0  0  0  0  0  0  0  0
    8.1650   37.5530   10.9310 C   0  0  0  0  0  0  0  0  0  0  0  0
    9.3450   37.5840   11.8750 C   0  0  0  0  0  0  0  0  0  0  0  0
    9.4800   36.9820   13.1130 C   0  0  0  0  0  0  0  0  0  0  0  0
    8.5240   36.1040   13.8570 C   0  0  0  0  0  0  0  0  0  0  0  0
    7.7780   36.6220   14.7160 O   0  0  0  0  0  0  0  0  0  0  0  0
    8.4850   34.8740   13.6370 O   0  0  0  0  0  1  0  0  0  0  0  0
   10.7320   37.3400   13.6580 N   0  0  0  0  0  0  0  0  0  0  0  0
   11.3160   36.9360   14.9400 C   0  0  0  0  0  0  0  0  0  0  0  0
   10.7170   35.6610   15.5480 C   0  0  0  0  0  0  0  0  0  0  0  0
   11.1420   34.3800   15.1150 C   0  0  0  0  0  0  0  0  0  0  0  0
   10.5960   33.2100   15.6690 C   0  0  0  0  0  0  0  0  0  0  0  0
    9.6130   33.2990   16.6670 C   0  0  0  0  0  0  0  0  0  0  0  0
    9.1730   34.5590   17.1140 C   0  0  0  0  0  0  0  0  0  0  0  0
    8.1840   34.6290   18.1170 C   0  0  0  0  0  0  0  0  0  0  0  0
    7.7290   35.8770   18.5780 C   0  0  0  0  0  0  0  0  0  0  0  0
    8.2630   37.0600   18.0360 C   0  0  0  0  0  0  0  0  0  0  0  0
    9.2500   36.9970   17.0340 C   0  0  0  0  0  0  0  0  0  0  0  0
    9.7200   35.7480   16.5580 C   0  0  0  0  0  0  0  0  0  0  0  0
   11.3970   38.1730   12.7680 C   0  0  0  0  0  0  0  0  0  0  0  0
   12.6530   38.8100   12.8360 C   0  0  0  0  0  0  0  0  0  0  0  0
   13.0940   39.6070   11.7670 C   0  0  0  0  0  0  0  0  0  0  0  0
   12.2800   39.7620   10.6320 C   0  0  0  0  0  0  0  0  0  0  0  0
   12.7010   40.5260    9.5950 F   0  0  0  0  0  0  0  0  0  0  0  0
   11.0250   39.1260   10.5720 C   0  0  0  0  0  0  0  0  0  0  0  0
   10.5500   38.3220   11.6370 C   0  0  0  0  0  0  0  0  0  0  0  0
    5.8616   34.2834    6.5367 H   0  0  0  0  0  0  0  0  0  0  0  0
    6.5530   35.5735    5.4955 H   0  0  0  0  0  0  0  0  0  0  0  0
    7.2826   33.9321    5.4955 H   0  0  0  0  0  0  0  0  0  0  0  0
    7.8394   34.2769    7.9589 H   0  0  0  0  0  0  0  0  0  0  0  0
    8.7110   35.3772    6.8404 H   0  0  0  0  0  0  0  0  0  0  0  0
    9.2787   35.3013   11.0039 H   0  0  0  0  0  0  0  0  0  0  0  0
    8.6073   34.6692    9.4624 H   0  0  0  0  0  0  0  0  0  0  0  0
   10.1601   35.5722    9.4624 H   0  0  0  0  0  0  0  0  0  0  0  0
    7.9298   38.5829   10.6242 H   0  0  0  0  0  0  0  0  0  0  0  0
    7.3202   37.0902   11.4622 H   0  0  0  0  0  0  0  0  0  0  0  0
   12.3926   36.7692   14.7879 H   0  0  0  0  0  0  0  0  0  0  0  0
   11.0979   37.7484   15.6488 H   0  0  0  0  0  0  0  0  0  0  0  0
   11.9114   34.3007   14.3329 H   0  0  0  0  0  0  0  0  0  0  0  0
   10.9388   32.2245   15.3207 H   0  0  0  0  0  0  0  0  0  0  0  0
    9.1859   32.3826   17.1004 H   0  0  0  0  0  0  0  0  0  0  0  0
    7.7668   33.7034   18.5404 H   0  0  0  0  0  0  0  0  0  0  0  0
    6.9575   35.9280   19.3604 H   0  0  0  0  0  0  0  0  0  0  0  0
    7.9085   38.0371   18.3960 H   0  0  0  0  0  0  0  0  0  0  0  0
    9.6609   37.9279   16.6160 H   0  0  0  0  0  0  0  0  0  0  0  0
   13.2871   38.6828   13.7258 H   0  0  0  0  0  0  0  0  0  0  0  0
   14.0721   40.1076   11.8179 H   0  0  0  0  0  0  0  0  0  0  0  0
   10.3989   39.2567    9.6771 H   0  0  0  0  0  0  0  0  0  0  0  0
  1  2  1  0
  2  3  1  0
  3  4  1  0
  4  5  2  0
  4  6  1  0
  6  7  1  0
  6  8  1  0
  8  9  1  0
  9 10  2  0
 10 11  1  0
 11 12  2  0
 11 13  1  0
 10 14  1  0
 14 15  1  0
 15 16  1  0
 16 17  2  0
 17 18  1  0
 18 19  2  0
 19 20  1  0
 20 21  2  0
 21 22  1  0
 22 23  2  0
 23 24  1  0
 24 25  2  0
 14 26  1  0
 26 27  2  0
 27 28  1  0
 28 29  2  0
 29 30  1  0
 29 31  1  0
 31 32  2  0
 32  9  1  0
 25 16  1  0
 32 26  1  0
 25 20  1  0
  1 33  1  0
  1 34  1  0
  1 35  1  0
  2 36  1  0
  2 37  1  0
  7 38  1  0
  7 39  1  0
  7 40  1  0
  8 41  1  0
  8 42  1  0
 15 43  1  0
 15 44  1  0
 17 45  1  0
 18 46  1  0
 19 47  1  0
 21 48  1  0
 22 49  1  0
 23 50  1  0
 24 51  1  0
 27 52  1  0
 28 53  1  0
 31 54  1  0
M  CHG  1  13  -1
M  END
>  <meeko>  (95) 
{"free_energy": -7.4, "intermolecular_energy": -9.78, "internal_energy": -1.18, "cluster_size": 109, "cluster_id": 6, "rank_in_cluster": 5}

$$$$

     RDKit          3D

 54 57  0  0  0  0  0  0  0  0999 V2000
    6.8600   37.7750    5.9560 C   0  0  0  0  0  0  0  0  0  0  0  0
    6.9970   38.5250    7.2830 C   0  0  0  0  0  0  0  0  0  0  0  0
    8.1610   38.0740    7.9560 O   0  0  0  0  0  0  0  0  0  0  0  0
    8.2080   36.8230    8.4600 C   0  0  0  0  0  0  0  0  0  0  0  0
    7.7040   35.8470    7.9010 O   0  0  0  0  0  0  0  0  0  0  0  0
    8.9050   36.8080    9.6760 N   0  0  0  0  0  0  0  0  0  0  0  0
   10.2990   36.3620    9.7710 C   0  0  0  0  0  0  0  0  0  0  0  0
    8.2570   37.2160   10.9300 C   0  0  0  0  0  0  0  0  0  0  0  0
    9.2600   37.5260   12.0160 C   0  0  0  0  0  0  0  0  0  0  0  0
    9.3590   36.9820   13.2850 C   0  0  0  0  0  0  0  0  0  0  0  0
    8.5350   35.9140   13.9320 C   0  0  0  0  0  0  0  0  0  0  0  0
    8.7390   34.7230   13.6140 O   0  0  0  0  0  0  0  0  0  0  0  0
    7.6460   36.2100   14.7590 O   0  0  0  0  0  1  0  0  0  0  0  0
   10.4110   37.6230   13.9730 N   0  0  0  0  0  0  0  0  0  0  0  0
   10.8920   37.3750   15.3350 C   0  0  0  0  0  0  0  0  0  0  0  0
   10.4050   36.0620   15.9620 C   0  0  0  0  0  0  0  0  0  0  0  0
   11.0290   34.8300   15.6430 C   0  0  0  0  0  0  0  0  0  0  0  0
   10.5860   33.6250   16.2150 C   0  0  0  0  0  0  0  0  0  0  0  0
    9.5090   33.6290   17.1160 C   0  0  0  0  0  0  0  0  0  0  0  0
    8.8720   34.8400   17.4480 C   0  0  0  0  0  0  0  0  0  0  0  0
    7.7910   34.8250   18.3540 C   0  0  0  0  0  0  0  0  0  0  0  0
    7.1400   36.0220   18.6990 C   0  0  0  0  0  0  0  0  0  0  0  0
    7.5680   37.2390   18.1390 C   0  0  0  0  0  0  0  0  0  0  0  0
    8.6460   37.2600   17.2330 C   0  0  0  0  0  0  0  0  0  0  0  0
    9.3140   36.0630   16.8740 C   0  0  0  0  0  0  0  0  0  0  0  0
   10.9850   38.5790   13.1450 C   0  0  0  0  0  0  0  0  0  0  0  0
   12.0420   39.4890   13.3520 C   0  0  0  0  0  0  0  0  0  0  0  0
   12.4320   40.3570   12.3180 C   0  0  0  0  0  0  0  0  0  0  0  0
   11.7650   40.3110   11.0810 C   0  0  0  0  0  0  0  0  0  0  0  0
   12.1380   41.1420   10.0800 F   0  0  0  0  0  0  0  0  0  0  0  0
   10.7070   39.4020   10.8840 C   0  0  0  0  0  0  0  0  0  0  0  0
   10.2870   38.5200   11.9090 C   0  0  0  0  0  0  0  0  0  0  0  0
    6.6656   36.7107    6.1547 H   0  0  0  0  0  0  0  0  0  0  0  0
    6.0244   38.1990    5.3797 H   0  0  0  0  0  0  0  0  0  0  0  0
    7.7915   37.8762    5.3797 H   0  0  0  0  0  0  0  0  0  0  0  0
    7.0795   39.6045    7.0886 H   0  0  0  0  0  0  0  0  0  0  0  0
    6.1120   38.3348    7.9079 H   0  0  0  0  0  0  0  0  0  0  0  0
   10.5835   36.2710   10.8297 H   0  0  0  0  0  0  0  0  0  0  0  0
   10.4058   35.3848    9.2773 H   0  0  0  0  0  0  0  0  0  0  0  0
   10.9532   37.0957    9.2773 H   0  0  0  0  0  0  0  0  0  0  0  0
    7.6516   38.1146   10.7399 H   0  0  0  0  0  0  0  0  0  0  0  0
    7.6330   36.3786   11.2757 H   0  0  0  0  0  0  0  0  0  0  0  0
   11.9916   37.3552   15.3110 H   0  0  0  0  0  0  0  0  0  0  0  0
   10.4851   38.1847   15.9586 H   0  0  0  0  0  0  0  0  0  0  0  0
   11.8726   34.8167   14.9372 H   0  0  0  0  0  0  0  0  0  0  0  0
   11.0832   32.6784   15.9567 H   0  0  0  0  0  0  0  0  0  0  0  0
    9.1627   32.6854   17.5628 H   0  0  0  0  0  0  0  0  0  0  0  0
    7.4563   33.8731   18.7921 H   0  0  0  0  0  0  0  0  0  0  0  0
    6.2972   36.0069   19.4058 H   0  0  0  0  0  0  0  0  0  0  0  0
    7.0597   38.1764   18.4092 H   0  0  0  0  0  0  0  0  0  0  0  0
    8.9731   38.2164   16.7991 H   0  0  0  0  0  0  0  0  0  0  0  0
   12.5606   39.5194   14.3216 H   0  0  0  0  0  0  0  0  0  0  0  0
   13.2554   41.0692   12.4756 H   0  0  0  0  0  0  0  0  0  0  0  0
   10.1950   39.3768    9.9108 H   0  0  0  0  0  0  0  0  0  0  0  0
  1  2  1  0
  2  3  1  0
  3  4  1  0
  4  5  2  0
  4  6  1  0
  6  7  1  0
  6  8  1  0
  8  9  1  0
  9 10  2  0
 10 11  1  0
 11 12  2  0
 11 13  1  0
 10 14  1  0
 14 15  1  0
 15 16  1  0
 16 17  2  0
 17 18  1  0
 18 19  2  0
 19 20  1  0
 20 21  2  0
 21 22  1  0
 22 23  2  0
 23 24  1  0
 24 25  2  0
 14 26  1  0
 26 27  2  0
 27 28  1  0
 28 29  2  0
 29 30  1  0
 29 31  1  0
 31 32  2  0
 32  9  1  0
 25 16  1  0
 32 26  1  0
 25 20  1  0
  1 33  1  0
  1 34  1  0
  1 35  1  0
  2 36  1  0
  2 37  1  0
  7 38  1  0
  7 39  1  0
  7 40  1  0
  8 41  1  0
  8 42  1  0
 15 43  1  0
 15 44  1  0
 17 45  1  0
 18 46  1  0
 19 47  1  0
 21 48  1  0
 22 49  1  0
 23 50  1  0
 24 51  1  0
 27 52  1  0
 28 53  1  0
 31 54  1  0
M  CHG  1  13  -1
M  END
>  <meeko>  (96) 
{"free_energy": -6.94, "intermolecular_energy": -9.32, "internal_energy": -0.97, "cluster_size": 109, "cluster_id": 6, "rank_in_cluster": 13}

$$$$

     RDKit          3D

 54 57  0  0  0  0  0  0  0  0999 V2000
    6.7950   35.0480    6.4860 C   0  0  0  0  0  0  0  0  0  0  0  0
    8.1330   34.8780    7.2110 C   0  0  0  0  0  0  0  0  0  0  0  0
    8.5150   36.1170    7.7840 O   0  0  0  0  0  0  0  0  0  0  0  0
    8.9220   36.1710    9.0710 C   0  0  0  0  0  0  0  0  0  0  0  0
    9.2950   35.1820    9.7050 O   0  0  0  0  0  0  0  0  0  0  0  0
    8.8620   37.4850    9.5510 N   0  0  0  0  0  0  0  0  0  0  0  0
    9.2580   38.6350    8.7300 C   0  0  0  0  0  0  0  0  0  0  0  0
    8.4230   37.7760   10.9220 C   0  0  0  0  0  0  0  0  0  0  0  0
    9.5660   37.7350   11.9090 C   0  0  0  0  0  0  0  0  0  0  0  0
    9.5870   37.2080   13.1890 C   0  0  0  0  0  0  0  0  0  0  0  0
    8.5090   36.5010   13.9480 C   0  0  0  0  0  0  0  0  0  0  0  0
    8.2130   35.3320   13.6210 O   0  0  0  0  0  0  0  0  0  0  0  0
    7.9030   37.0770   14.8780 O   0  0  0  0  0  1  0  0  0  0  0  0
   10.8540   37.4560   13.7610 N   0  0  0  0  0  0  0  0  0  0  0  0
   11.3430   37.0760   15.0890 C   0  0  0  0  0  0  0  0  0  0  0  0
   10.8030   35.7400   15.6180 C   0  0  0  0  0  0  0  0  0  0  0  0
   11.3050   34.5090   15.1270 C   0  0  0  0  0  0  0  0  0  0  0  0
   10.8130   33.2840   15.6080 C   0  0  0  0  0  0  0  0  0  0  0  0
    9.8080   33.2660   16.5880 C   0  0  0  0  0  0  0  0  0  0  0  0
    9.2920   34.4760   17.0910 C   0  0  0  0  0  0  0  0  0  0  0  0
    8.2830   34.4390   18.0750 C   0  0  0  0  0  0  0  0  0  0  0  0
    7.7520   35.6350   18.5910 C   0  0  0  0  0  0  0  0  0  0  0  0
    8.2320   36.8720   18.1230 C   0  0  0  0  0  0  0  0  0  0  0  0
    9.2390   36.9150   17.1400 C   0  0  0  0  0  0  0  0  0  0  0  0
    9.7850   35.7200   16.6090 C   0  0  0  0  0  0  0  0  0  0  0  0
   11.6430   38.1420   12.8470 C   0  0  0  0  0  0  0  0  0  0  0  0
   12.9620   38.6330   12.9260 C   0  0  0  0  0  0  0  0  0  0  0  0
   13.5300   39.2970   11.8260 C   0  0  0  0  0  0  0  0  0  0  0  0
   12.7780   39.4670   10.6510 C   0  0  0  0  0  0  0  0  0  0  0  0
   13.3210   40.1030    9.5860 F   0  0  0  0  0  0  0  0  0  0  0  0
   11.4600   38.9780   10.5800 C   0  0  0  0  0  0  0  0  0  0  0  0
   10.8580   38.3100   11.6750 C   0  0  0  0  0  0  0  0  0  0  0  0
    5.9875   35.1506    7.2259 H   0  0  0  0  0  0  0  0  0  0  0  0
    6.8314   35.9487    5.8557 H   0  0  0  0  0  0  0  0  0  0  0  0
    6.6050   34.1668    5.8557 H   0  0  0  0  0  0  0  0  0  0  0  0
    8.0281   34.1230    8.0041 H   0  0  0  0  0  0  0  0  0  0  0  0
    8.9013   34.5500    6.4954 H   0  0  0  0  0  0  0  0  0  0  0  0
    9.5459   39.4710    9.3844 H   0  0  0  0  0  0  0  0  0  0  0  0
   10.1117   38.3556    8.0951 H   0  0  0  0  0  0  0  0  0  0  0  0
    8.4133   38.9405    8.0951 H   0  0  0  0  0  0  0  0  0  0  0  0
    7.9720   38.7791   10.9440 H   0  0  0  0  0  0  0  0  0  0  0  0
    7.6967   37.0035   11.2147 H   0  0  0  0  0  0  0  0  0  0  0  0
   12.4399   37.0070   15.0425 H   0  0  0  0  0  0  0  0  0  0  0  0
   10.9848   37.8504   15.7832 H   0  0  0  0  0  0  0  0  0  0  0  0
   12.0915   34.5126   14.3579 H   0  0  0  0  0  0  0  0  0  0  0  0
   11.2156   32.3382   15.2163 H   0  0  0  0  0  0  0  0  0  0  0  0
    9.4233   32.3062   16.9632 H   0  0  0  0  0  0  0  0  0  0  0  0
    7.9096   33.4711   18.4406 H   0  0  0  0  0  0  0  0  0  0  0  0
    6.9641   35.6033   19.3579 H   0  0  0  0  0  0  0  0  0  0  0  0
    7.8192   37.8084   18.5264 H   0  0  0  0  0  0  0  0  0  0  0  0
    9.6062   37.8874   16.7800 H   0  0  0  0  0  0  0  0  0  0  0  0
   13.5460   38.4963   13.8481 H   0  0  0  0  0  0  0  0  0  0  0  0
   14.5587   39.6821   11.8841 H   0  0  0  0  0  0  0  0  0  0  0  0
   10.8842   39.1176    9.6532 H   0  0  0  0  0  0  0  0  0  0  0  0
  1  2  1  0
  2  3  1  0
  3  4  1  0
  4  5  2  0
  4  6  1  0
  6  7  1  0
  6  8  1  0
  8  9  1  0
  9 10  2  0
 10 11  1  0
 11 12  2  0
 11 13  1  0
 10 14  1  0
 14 15  1  0
 15 16  1  0
 16 17  2  0
 17 18  1  0
 18 19  2  0
 19 20  1  0
 20 21  2  0
 21 22  1  0
 22 23  2  0
 23 24  1  0
 24 25  2  0
 14 26  1  0
 26 27  2  0
 27 28  1  0
 28 29  2  0
 29 30  1  0
 29 31  1  0
 31 32  2  0
 32  9  1  0
 25 16  1  0
 32 26  1  0
 25 20  1  0
  1 33  1  0
  1 34  1  0
  1 35  1  0
  2 36  1  0
  2 37  1  0
  7 38  1  0
  7 39  1  0
  7 40  1  0
  8 41  1  0
  8 42  1  0
 15 43  1  0
 15 44  1  0
 17 45  1  0
 18 46  1  0
 19 47  1  0
 21 48  1  0
 22 49  1  0
 23 50  1  0
 24 51  1  0
 27 52  1  0
 28 53  1  0
 31 54  1  0
M  CHG  1  13  -1
M  END
>  <meeko>  (97) 
{"free_energy": -6.66, "intermolecular_energy": -9.05, "internal_energy": -1.2, "cluster_size": 109, "cluster_id": 6, "rank_in_cluster": 28}

$$$$

     RDKit          3D

 54 57  0  0  0  0  0  0  0  0999 V2000
    6.0140   36.0160   18.2050 C   0  0  0  0  0  0  0  0  0  0  0  0
    7.2800   35.3940   17.6110 C   0  0  0  0  0  0  0  0  0  0  0  0
    7.2330   35.5000   16.1970 O   0  0  0  0  0  0  0  0  0  0  0  0
    8.2660   36.0500   15.5250 C   0  0  0  0  0  0  0  0  0  0  0  0
    8.5270   37.2540   15.5510 O   0  0  0  0  0  0  0  0  0  0  0  0
    8.9750   35.0670   14.8220 N   0  0  0  0  0  0  0  0  0  0  0  0
    8.5010   33.6820   14.7270 C   0  0  0  0  0  0  0  0  0  0  0  0
   10.2530   35.3720   14.1650 C   0  0  0  0  0  0  0  0  0  0  0  0
   10.1830   36.6320   13.3350 C   0  0  0  0  0  0  0  0  0  0  0  0
   10.7160   37.8800   13.6060 C   0  0  0  0  0  0  0  0  0  0  0  0
   11.5380   38.3330   14.7710 C   0  0  0  0  0  0  0  0  0  0  0  0
   12.6050   37.7330   15.0230 O   0  0  0  0  0  0  0  0  0  0  0  0
   11.1550   39.2820   15.4900 O   0  0  0  0  0  1  0  0  0  0  0  0
   10.3430   38.7680   12.5740 N   0  0  0  0  0  0  0  0  0  0  0  0
   10.6810   40.1860   12.4270 C   0  0  0  0  0  0  0  0  0  0  0  0
   11.3830   40.5480   11.1110 C   0  0  0  0  0  0  0  0  0  0  0  0
   10.9320   41.6360   10.3230 C   0  0  0  0  0  0  0  0  0  0  0  0
   11.5720   41.9710    9.1170 C   0  0  0  0  0  0  0  0  0  0  0  0
   12.6750   41.2230    8.6760 C   0  0  0  0  0  0  0  0  0  0  0  0
   13.1420   40.1370    9.4410 C   0  0  0  0  0  0  0  0  0  0  0  0
   14.2510   39.3960    8.9820 C   0  0  0  0  0  0  0  0  0  0  0  0
   14.7340   38.3070    9.7290 C   0  0  0  0  0  0  0  0  0  0  0  0
   14.1080   37.9570   10.9380 C   0  0  0  0  0  0  0  0  0  0  0  0
   13.0000   38.6920   11.4010 C   0  0  0  0  0  0  0  0  0  0  0  0
   12.5000   39.7920   10.6620 C   0  0  0  0  0  0  0  0  0  0  0  0
    9.5710   38.0870   11.6420 C   0  0  0  0  0  0  0  0  0  0  0  0
    8.9460   38.5100   10.4510 C   0  0  0  0  0  0  0  0  0  0  0  0
    8.2170   37.5920    9.6770 C   0  0  0  0  0  0  0  0  0  0  0  0
    8.1150   36.2540   10.0960 C   0  0  0  0  0  0  0  0  0  0  0  0
    7.4170   35.3630    9.3530 F   0  0  0  0  0  0  0  0  0  0  0  0
    8.7390   35.8400   11.2890 C   0  0  0  0  0  0  0  0  0  0  0  0
    9.4750   36.7440   12.0930 C   0  0  0  0  0  0  0  0  0  0  0  0
    6.0720   35.9875   19.3031 H   0  0  0  0  0  0  0  0  0  0  0  0
    5.9261   37.0599   17.8694 H   0  0  0  0  0  0  0  0  0  0  0  0
    5.1340   35.4476   17.8694 H   0  0  0  0  0  0  0  0  0  0  0  0
    8.1645   35.9266   17.9906 H   0  0  0  0  0  0  0  0  0  0  0  0
    7.3417   34.3345   17.9002 H   0  0  0  0  0  0  0  0  0  0  0  0
    8.3608   33.2723   15.7382 H   0  0  0  0  0  0  0  0  0  0  0  0
    7.5436   33.6584   14.1858 H   0  0  0  0  0  0  0  0  0  0  0  0
    9.2432   33.0768   14.1858 H   0  0  0  0  0  0  0  0  0  0  0  0
   11.0264   35.4991   14.9369 H   0  0  0  0  0  0  0  0  0  0  0  0
   10.4930   34.5369   13.4905 H   0  0  0  0  0  0  0  0  0  0  0  0
    9.7496   40.7679   12.4891 H   0  0  0  0  0  0  0  0  0  0  0  0
   11.3935   40.4192   13.2320 H   0  0  0  0  0  0  0  0  0  0  0  0
   10.0680   42.2274   10.6601 H   0  0  0  0  0  0  0  0  0  0  0  0
   11.2084   42.8195    8.5188 H   0  0  0  0  0  0  0  0  0  0  0  0
   13.1749   41.4855    7.7320 H   0  0  0  0  0  0  0  0  0  0  0  0
   14.7400   39.6712    8.0359 H   0  0  0  0  0  0  0  0  0  0  0  0
   15.5989   37.7308    9.3685 H   0  0  0  0  0  0  0  0  0  0  0  0
   14.4851   37.1061   11.5243 H   0  0  0  0  0  0  0  0  0  0  0  0
   12.5170   38.4086   12.3478 H   0  0  0  0  0  0  0  0  0  0  0  0
    9.0292   39.5582   10.1281 H   0  0  0  0  0  0  0  0  0  0  0  0
    7.7282   37.9186    8.7473 H   0  0  0  0  0  0  0  0  0  0  0  0
    8.6525   34.7895   11.6036 H   0  0  0  0  0  0  0  0  0  0  0  0
  1  2  1  0
  2  3  1  0
  3  4  1  0
  4  5  2  0
  4  6  1  0
  6  7  1  0
  6  8  1  0
  8  9  1  0
  9 10  2  0
 10 11  1  0
 11 12  2  0
 11 13  1  0
 10 14  1  0
 14 15  1  0
 15 16  1  0
 16 17  2  0
 17 18  1  0
 18 19  2  0
 19 20  1  0
 20 21  2  0
 21 22  1  0
 22 23  2  0
 23 24  1  0
 24 25  2  0
 14 26  1  0
 26 27  2  0
 27 28  1  0
 28 29  2  0
 29 30  1  0
 29 31  1  0
 31 32  2  0
 32  9  1  0
 25 16  1  0
 32 26  1  0
 25 20  1  0
  1 33  1  0
  1 34  1  0
  1 35  1  0
  2 36  1  0
  2 37  1  0
  7 38  1  0
  7 39  1  0
  7 40  1  0
  8 41  1  0
  8 42  1  0
 15 43  1  0
 15 44  1  0
 17 45  1  0
 18 46  1  0
 19 47  1  0
 21 48  1  0
 22 49  1  0
 23 50  1  0
 24 51  1  0
 27 52  1  0
 28 53  1  0
 31 54  1  0
M  CHG  1  13  -1
M  END
>  <meeko>  (98) 
{"free_energy": -6.16, "intermolecular_energy": -8.55, "internal_energy": -2.01, "cluster_size": 251, "cluster_id": 26, "rank_in_cluster": 49}

$$$$

     RDKit          3D

 54 57  0  0  0  0  0  0  0  0999 V2000
   14.8990   34.8950    9.6500 C   0  0  0  0  0  0  0  0  0  0  0  0
   14.2270   36.1440   10.2260 C   0  0  0  0  0  0  0  0  0  0  0  0
   15.1590   37.2130   10.2400 O   0  0  0  0  0  0  0  0  0  0  0  0
   14.7280   38.4880   10.1420 C   0  0  0  0  0  0  0  0  0  0  0  0
   14.5620   39.0670    9.0670 O   0  0  0  0  0  0  0  0  0  0  0  0
   14.5010   39.0290   11.4140 N   0  0  0  0  0  0  0  0  0  0  0  0
   15.5150   38.9850   12.4730 C   0  0  0  0  0  0  0  0  0  0  0  0
   13.2140   39.6470   11.7610 C   0  0  0  0  0  0  0  0  0  0  0  0
   12.3370   38.7240   12.5740 C   0  0  0  0  0  0  0  0  0  0  0  0
   11.2760   37.9420   12.1530 C   0  0  0  0  0  0  0  0  0  0  0  0
   10.7150   37.7560   10.7780 C   0  0  0  0  0  0  0  0  0  0  0  0
    9.4780   37.6370   10.6460 O   0  0  0  0  0  0  0  0  0  0  0  0
   11.4710   37.7020    9.7840 O   0  0  0  0  0  1  0  0  0  0  0  0
   10.7150   37.2950   13.2740 N   0  0  0  0  0  0  0  0  0  0  0  0
    9.5840   36.3630   13.3170 C   0  0  0  0  0  0  0  0  0  0  0  0
    9.6220   35.3560   14.4740 C   0  0  0  0  0  0  0  0  0  0  0  0
   10.5710   34.3030   14.4890 C   0  0  0  0  0  0  0  0  0  0  0  0
   10.6090   33.3780   15.5460 C   0  0  0  0  0  0  0  0  0  0  0  0
    9.6970   33.4880   16.6080 C   0  0  0  0  0  0  0  0  0  0  0  0
    8.7440   34.5240   16.6150 C   0  0  0  0  0  0  0  0  0  0  0  0
    7.8350   34.6180   17.6900 C   0  0  0  0  0  0  0  0  0  0  0  0
    6.8740   35.6450   17.7180 C   0  0  0  0  0  0  0  0  0  0  0  0
    6.8210   36.5810   16.6700 C   0  0  0  0  0  0  0  0  0  0  0  0
    7.7250   36.4910   15.5940 C   0  0  0  0  0  0  0  0  0  0  0  0
    8.6990   35.4640   15.5500 C   0  0  0  0  0  0  0  0  0  0  0  0
   11.4170   37.6640   14.4140 C   0  0  0  0  0  0  0  0  0  0  0  0
   11.2550   37.3160   15.7710 C   0  0  0  0  0  0  0  0  0  0  0  0
   12.1310   37.8380   16.7380 C   0  0  0  0  0  0  0  0  0  0  0  0
   13.1660   38.7040   16.3440 C   0  0  0  0  0  0  0  0  0  0  0  0
   14.0160   39.2080   17.2710 F   0  0  0  0  0  0  0  0  0  0  0  0
   13.3190   39.0500   14.9880 C   0  0  0  0  0  0  0  0  0  0  0  0
   12.4480   38.5450   13.9920 C   0  0  0  0  0  0  0  0  0  0  0  0
   15.2449   34.2522   10.4729 H   0  0  0  0  0  0  0  0  0  0  0  0
   14.1766   34.3421    9.0316 H   0  0  0  0  0  0  0  0  0  0  0  0
   15.7584   35.1932    9.0316 H   0  0  0  0  0  0  0  0  0  0  0  0
   13.3634   36.4175    9.6021 H   0  0  0  0  0  0  0  0  0  0  0  0
   13.8855   35.9392   11.2514 H   0  0  0  0  0  0  0  0  0  0  0  0
   15.0204   39.0065   13.4553 H   0  0  0  0  0  0  0  0  0  0  0  0
   16.1036   38.0605   12.3789 H   0  0  0  0  0  0  0  0  0  0  0  0
   16.1814   39.8551   12.3789 H   0  0  0  0  0  0  0  0  0  0  0  0
   13.4054   40.5591   12.3453 H   0  0  0  0  0  0  0  0  0  0  0  0
   12.6858   39.8748   10.8234 H   0  0  0  0  0  0  0  0  0  0  0  0
    8.6590   36.9516   13.4063 H   0  0  0  0  0  0  0  0  0  0  0  0
    9.6354   35.7717   12.3908 H   0  0  0  0  0  0  0  0  0  0  0  0
   11.2885   34.2086   13.6606 H   0  0  0  0  0  0  0  0  0  0  0  0
   11.3531   32.5678   15.5415 H   0  0  0  0  0  0  0  0  0  0  0  0
    9.7273   32.7638   17.4354 H   0  0  0  0  0  0  0  0  0  0  0  0
    7.8779   33.8854   18.5094 H   0  0  0  0  0  0  0  0  0  0  0  0
    6.1662   35.7156   18.5571 H   0  0  0  0  0  0  0  0  0  0  0  0
    6.0713   37.3857   16.6907 H   0  0  0  0  0  0  0  0  0  0  0  0
    7.6740   37.2271   14.7781 H   0  0  0  0  0  0  0  0  0  0  0  0
   10.4439   36.6368   16.0722 H   0  0  0  0  0  0  0  0  0  0  0  0
   12.0075   37.5704   17.7978 H   0  0  0  0  0  0  0  0  0  0  0  0
   14.1340   39.7283   14.6953 H   0  0  0  0  0  0  0  0  0  0  0  0
  1  2  1  0
  2  3  1  0
  3  4  1  0
  4  5  2  0
  4  6  1  0
  6  7  1  0
  6  8  1  0
  8  9  1  0
  9 10  2  0
 10 11  1  0
 11 12  2  0
 11 13  1  0
 10 14  1  0
 14 15  1  0
 15 16  1  0
 16 17  2  0
 17 18  1  0
 18 19  2  0
 19 20  1  0
 20 21  2  0
 21 22  1  0
 22 23  2  0
 23 24  1  0
 24 25  2  0
 14 26  1  0
 26 27  2  0
 27 28  1  0
 28 29  2  0
 29 30  1  0
 29 31  1  0
 31 32  2  0
 32  9  1  0
 25 16  1  0
 32 26  1  0
 25 20  1  0
  1 33  1  0
  1 34  1  0
  1 35  1  0
  2 36  1  0
  2 37  1  0
  7 38  1  0
  7 39  1  0
  7 40  1  0
  8 41  1  0
  8 42  1  0
 15 43  1  0
 15 44  1  0
 17 45  1  0
 18 46  1  0
 19 47  1  0
 21 48  1  0
 22 49  1  0
 23 50  1  0
 24 51  1  0
 27 52  1  0
 28 53  1  0
 31 54  1  0
M  CHG  1  13  -1
M  END
>  <meeko>  (99) 
{"free_energy": -5.57, "intermolecular_energy": -7.96, "internal_energy": -1.81, "cluster_size": 30, "cluster_id": 91, "rank_in_cluster": 2}

$$$$

     RDKit          3D

 54 57  0  0  0  0  0  0  0  0999 V2000
    7.8900   42.2600   19.1750 C   0  0  0  0  0  0  0  0  0  0  0  0
    8.6620   43.2940   18.3520 C   0  0  0  0  0  0  0  0  0  0  0  0
    8.1150   43.3540   17.0450 O   0  0  0  0  0  0  0  0  0  0  0  0
    8.8410   42.9310   15.9880 C   0  0  0  0  0  0  0  0  0  0  0  0
    8.3890   42.2030   15.1030 O   0  0  0  0  0  0  0  0  0  0  0  0
   10.1440   43.4410   16.0520 N   0  0  0  0  0  0  0  0  0  0  0  0
   10.4930   44.7630   15.5190 C   0  0  0  0  0  0  0  0  0  0  0  0
   11.2410   42.6570   16.6360 C   0  0  0  0  0  0  0  0  0  0  0  0
   10.9640   41.1720   16.6010 C   0  0  0  0  0  0  0  0  0  0  0  0
   10.9030   40.2770   17.6550 C   0  0  0  0  0  0  0  0  0  0  0  0
   11.0570   40.5210   19.1230 C   0  0  0  0  0  0  0  0  0  0  0  0
   10.0650   40.3560   19.8660 O   0  0  0  0  0  0  0  0  0  0  0  0
   12.1510   40.9010   19.5950 O   0  0  0  0  0  1  0  0  0  0  0  0
   10.6820   38.9830   17.1390 N   0  0  0  0  0  0  0  0  0  0  0  0
   10.5360   37.7230   17.8740 C   0  0  0  0  0  0  0  0  0  0  0  0
    9.3410   36.8610   17.4460 C   0  0  0  0  0  0  0  0  0  0  0  0
    8.0180   37.2290   17.7970 C   0  0  0  0  0  0  0  0  0  0  0  0
    6.9200   36.4430   17.4070 C   0  0  0  0  0  0  0  0  0  0  0  0
    7.1250   35.2720   16.6600 C   0  0  0  0  0  0  0  0  0  0  0  0
    8.4290   34.8840   16.3000 C   0  0  0  0  0  0  0  0  0  0  0  0
    8.6160   33.7050   15.5490 C   0  0  0  0  0  0  0  0  0  0  0  0
    9.9100   33.2980   15.1790 C   0  0  0  0  0  0  0  0  0  0  0  0
   11.0210   34.0720   15.5580 C   0  0  0  0  0  0  0  0  0  0  0  0
   10.8420   35.2500   16.3080 C   0  0  0  0  0  0  0  0  0  0  0  0
    9.5450   35.6740   16.6900 C   0  0  0  0  0  0  0  0  0  0  0  0
   10.6010   39.0490   15.7540 C   0  0  0  0  0  0  0  0  0  0  0  0
   10.4070   38.0530   14.7750 C   0  0  0  0  0  0  0  0  0  0  0  0
   10.3570   38.4060   13.4160 C   0  0  0  0  0  0  0  0  0  0  0  0
   10.4990   39.7530   13.0410 C   0  0  0  0  0  0  0  0  0  0  0  0
   10.4480   40.1010   11.7330 F   0  0  0  0  0  0  0  0  0  0  0  0
   10.6970   40.7420   14.0240 C   0  0  0  0  0  0  0  0  0  0  0  0
   10.7580   40.4160   15.4010 C   0  0  0  0  0  0  0  0  0  0  0  0
    8.0387   42.4591   20.2466 H   0  0  0  0  0  0  0  0  0  0  0  0
    6.8185   42.3262   18.9350 H   0  0  0  0  0  0  0  0  0  0  0  0
    8.2579   41.2515   18.9350 H   0  0  0  0  0  0  0  0  0  0  0  0
    8.5795   44.2809   18.8308 H   0  0  0  0  0  0  0  0  0  0  0  0
    9.7217   43.0042   18.2956 H   0  0  0  0  0  0  0  0  0  0  0  0
   10.6763   45.4575   16.3521 H   0  0  0  0  0  0  0  0  0  0  0  0
   11.4005   44.6820   14.9027 H   0  0  0  0  0  0  0  0  0  0  0  0
    9.6637   45.1405   14.9027 H   0  0  0  0  0  0  0  0  0  0  0  0
   12.1616   42.8589   16.0688 H   0  0  0  0  0  0  0  0  0  0  0  0
   11.3456   42.9559   17.6894 H   0  0  0  0  0  0  0  0  0  0  0  0
   11.4529   37.1333   17.7271 H   0  0  0  0  0  0  0  0  0  0  0  0
   10.3586   37.9970   18.9245 H   0  0  0  0  0  0  0  0  0  0  0  0
    7.8479   38.1438   18.3837 H   0  0  0  0  0  0  0  0  0  0  0  0
    5.9001   36.7453   17.6870 H   0  0  0  0  0  0  0  0  0  0  0  0
    6.2652   34.6570   16.3557 H   0  0  0  0  0  0  0  0  0  0  0  0
    7.7459   33.1013   15.2515 H   0  0  0  0  0  0  0  0  0  0  0  0
   10.0527   32.3769   14.5948 H   0  0  0  0  0  0  0  0  0  0  0  0
   12.0338   33.7560   15.2674 H   0  0  0  0  0  0  0  0  0  0  0  0
   11.7181   35.8474   16.6005 H   0  0  0  0  0  0  0  0  0  0  0  0
   10.2949   37.0006   15.0749 H   0  0  0  0  0  0  0  0  0  0  0  0
   10.2074   37.6317   12.6491 H   0  0  0  0  0  0  0  0  0  0  0  0
   10.8068   41.7920   13.7151 H   0  0  0  0  0  0  0  0  0  0  0  0
  1  2  1  0
  2  3  1  0
  3  4  1  0
  4  5  2  0
  4  6  1  0
  6  7  1  0
  6  8  1  0
  8  9  1  0
  9 10  2  0
 10 11  1  0
 11 12  2  0
 11 13  1  0
 10 14  1  0
 14 15  1  0
 15 16  1  0
 16 17  2  0
 17 18  1  0
 18 19  2  0
 19 20  1  0
 20 21  2  0
 21 22  1  0
 22 23  2  0
 23 24  1  0
 24 25  2  0
 14 26  1  0
 26 27  2  0
 27 28  1  0
 28 29  2  0
 29 30  1  0
 29 31  1  0
 31 32  2  0
 32  9  1  0
 25 16  1  0
 32 26  1  0
 25 20  1  0
  1 33  1  0
  1 34  1  0
  1 35  1  0
  2 36  1  0
  2 37  1  0
  7 38  1  0
  7 39  1  0
  7 40  1  0
  8 41  1  0
  8 42  1  0
 15 43  1  0
 15 44  1  0
 17 45  1  0
 18 46  1  0
 19 47  1  0
 21 48  1  0
 22 49  1  0
 23 50  1  0
 24 51  1  0
 27 52  1  0
 28 53  1  0
 31 54  1  0
M  CHG  1  13  -1
M  END
>  <meeko>  (100) 
{"free_energy": -4.22, "intermolecular_energy": -6.6, "internal_energy": -2.19, "cluster_size": 12, "cluster_id": 149, "rank_in_cluster": 5}

$$$$
